
---------- Begin Simulation Statistics ----------
simSeconds                                   0.009299                       # Number of seconds simulated (Second)
simTicks                                   9299440680                       # Number of ticks simulated (Tick)
finalTick                                  9299440680                       # Number of ticks from beginning of simulation (restored from checkpoints and never reset) (Tick)
simFreq                                  1000000000000                       # The number of ticks per simulated second ((Tick/Second))
hostSeconds                                    144.72                       # Real time elapsed on the host (Second)
hostTickRate                                 64256902                       # The number of ticks simulated per host second (ticks/s) ((Tick/Second))
hostMemory                                    1168964                       # Number of bytes of host memory used (Byte)
simInsts                                      3640936                       # Number of instructions simulated (Count)
simOps                                        5708428                       # Number of ops (including micro ops) simulated (Count)
hostInstRate                                    25158                       # Simulator instruction rate (inst/s) ((Count/Second))
hostOpRate                                      39444                       # Simulator op (including micro ops) rate (op/s) ((Count/Second))
system.clk_domain.clock                           376                       # Clock period in ticks (Tick)
system.clk_domain.voltage_domain.voltage            1                       # Voltage in Volts (Volt)
system.cpu.numCycles                         24732556                       # Number of cpu cycles simulated (Cycle)
system.cpu.numWorkItemsStarted                      0                       # Number of work items this cpu started (Count)
system.cpu.numWorkItemsCompleted                    0                       # Number of work items this cpu completed (Count)
system.cpu.instsAdded                         6120181                       # Number of instructions added to the IQ (excludes non-spec) (Count)
system.cpu.nonSpecInstsAdded                       75                       # Number of non-speculative instructions added to the IQ (Count)
system.cpu.instsIssued                        6000474                       # Number of instructions issued (Count)
system.cpu.squashedInstsIssued                    470                       # Number of squashed instructions issued (Count)
system.cpu.squashedInstsExamined               411813                       # Number of squashed instructions iterated over during squash; mainly for profiling (Count)
system.cpu.squashedOperandsExamined            575924                       # Number of squashed operands that are examined and possibly removed from graph (Count)
system.cpu.squashedNonSpecRemoved                  56                       # Number of squashed non-spec instructions that were removed (Count)
system.cpu.numIssuedDist::samples            24695513                       # Number of insts issued each cycle (Count)
system.cpu.numIssuedDist::mean               0.242978                       # Number of insts issued each cycle (Count)
system.cpu.numIssuedDist::stdev              0.712737                       # Number of insts issued each cycle (Count)
system.cpu.numIssuedDist::underflows                0      0.00%      0.00% # Number of insts issued each cycle (Count)
system.cpu.numIssuedDist::0                  21089978     85.40%     85.40% # Number of insts issued each cycle (Count)
system.cpu.numIssuedDist::1                   2189006      8.86%     94.26% # Number of insts issued each cycle (Count)
system.cpu.numIssuedDist::2                    839386      3.40%     97.66% # Number of insts issued each cycle (Count)
system.cpu.numIssuedDist::3                    319813      1.30%     98.96% # Number of insts issued each cycle (Count)
system.cpu.numIssuedDist::4                    173088      0.70%     99.66% # Number of insts issued each cycle (Count)
system.cpu.numIssuedDist::5                     43087      0.17%     99.83% # Number of insts issued each cycle (Count)
system.cpu.numIssuedDist::6                     27177      0.11%     99.94% # Number of insts issued each cycle (Count)
system.cpu.numIssuedDist::7                      9416      0.04%     99.98% # Number of insts issued each cycle (Count)
system.cpu.numIssuedDist::8                      4562      0.02%    100.00% # Number of insts issued each cycle (Count)
system.cpu.numIssuedDist::overflows                 0      0.00%    100.00% # Number of insts issued each cycle (Count)
system.cpu.numIssuedDist::min_value                 0                       # Number of insts issued each cycle (Count)
system.cpu.numIssuedDist::max_value                 8                       # Number of insts issued each cycle (Count)
system.cpu.numIssuedDist::total              24695513                       # Number of insts issued each cycle (Count)
system.cpu.statFuBusy::No_OpClass                   0      0.00%      0.00% # attempts to use FU when none available (Count)
system.cpu.statFuBusy::IntAlu                    8883     97.62%     97.62% # attempts to use FU when none available (Count)
system.cpu.statFuBusy::IntMult                      0      0.00%     97.62% # attempts to use FU when none available (Count)
system.cpu.statFuBusy::IntDiv                       0      0.00%     97.62% # attempts to use FU when none available (Count)
system.cpu.statFuBusy::FloatAdd                     0      0.00%     97.62% # attempts to use FU when none available (Count)
system.cpu.statFuBusy::FloatCmp                     0      0.00%     97.62% # attempts to use FU when none available (Count)
system.cpu.statFuBusy::FloatCvt                     0      0.00%     97.62% # attempts to use FU when none available (Count)
system.cpu.statFuBusy::FloatMult                    0      0.00%     97.62% # attempts to use FU when none available (Count)
system.cpu.statFuBusy::FloatMultAcc                 0      0.00%     97.62% # attempts to use FU when none available (Count)
system.cpu.statFuBusy::FloatDiv                     0      0.00%     97.62% # attempts to use FU when none available (Count)
system.cpu.statFuBusy::FloatMisc                    0      0.00%     97.62% # attempts to use FU when none available (Count)
system.cpu.statFuBusy::FloatSqrt                    0      0.00%     97.62% # attempts to use FU when none available (Count)
system.cpu.statFuBusy::SimdAdd                    127      1.40%     99.01% # attempts to use FU when none available (Count)
system.cpu.statFuBusy::SimdAddAcc                   0      0.00%     99.01% # attempts to use FU when none available (Count)
system.cpu.statFuBusy::SimdAlu                     10      0.11%     99.12% # attempts to use FU when none available (Count)
system.cpu.statFuBusy::SimdCmp                      0      0.00%     99.12% # attempts to use FU when none available (Count)
system.cpu.statFuBusy::SimdCvt                      3      0.03%     99.15% # attempts to use FU when none available (Count)
system.cpu.statFuBusy::SimdMisc                     2      0.02%     99.18% # attempts to use FU when none available (Count)
system.cpu.statFuBusy::SimdMult                     0      0.00%     99.18% # attempts to use FU when none available (Count)
system.cpu.statFuBusy::SimdMultAcc                  0      0.00%     99.18% # attempts to use FU when none available (Count)
system.cpu.statFuBusy::SimdShift                    0      0.00%     99.18% # attempts to use FU when none available (Count)
system.cpu.statFuBusy::SimdShiftAcc                 0      0.00%     99.18% # attempts to use FU when none available (Count)
system.cpu.statFuBusy::SimdDiv                      0      0.00%     99.18% # attempts to use FU when none available (Count)
system.cpu.statFuBusy::SimdSqrt                     0      0.00%     99.18% # attempts to use FU when none available (Count)
system.cpu.statFuBusy::SimdFloatAdd                 0      0.00%     99.18% # attempts to use FU when none available (Count)
system.cpu.statFuBusy::SimdFloatAlu                 0      0.00%     99.18% # attempts to use FU when none available (Count)
system.cpu.statFuBusy::SimdFloatCmp                 0      0.00%     99.18% # attempts to use FU when none available (Count)
system.cpu.statFuBusy::SimdFloatCvt                 0      0.00%     99.18% # attempts to use FU when none available (Count)
system.cpu.statFuBusy::SimdFloatDiv                 0      0.00%     99.18% # attempts to use FU when none available (Count)
system.cpu.statFuBusy::SimdFloatMisc                0      0.00%     99.18% # attempts to use FU when none available (Count)
system.cpu.statFuBusy::SimdFloatMult                0      0.00%     99.18% # attempts to use FU when none available (Count)
system.cpu.statFuBusy::SimdFloatMultAcc             0      0.00%     99.18% # attempts to use FU when none available (Count)
system.cpu.statFuBusy::SimdFloatSqrt                0      0.00%     99.18% # attempts to use FU when none available (Count)
system.cpu.statFuBusy::SimdReduceAdd                0      0.00%     99.18% # attempts to use FU when none available (Count)
system.cpu.statFuBusy::SimdReduceAlu                0      0.00%     99.18% # attempts to use FU when none available (Count)
system.cpu.statFuBusy::SimdReduceCmp                0      0.00%     99.18% # attempts to use FU when none available (Count)
system.cpu.statFuBusy::SimdFloatReduceAdd            0      0.00%     99.18% # attempts to use FU when none available (Count)
system.cpu.statFuBusy::SimdFloatReduceCmp            0      0.00%     99.18% # attempts to use FU when none available (Count)
system.cpu.statFuBusy::SimdAes                      0      0.00%     99.18% # attempts to use FU when none available (Count)
system.cpu.statFuBusy::SimdAesMix                   0      0.00%     99.18% # attempts to use FU when none available (Count)
system.cpu.statFuBusy::SimdSha1Hash                 0      0.00%     99.18% # attempts to use FU when none available (Count)
system.cpu.statFuBusy::SimdSha1Hash2                0      0.00%     99.18% # attempts to use FU when none available (Count)
system.cpu.statFuBusy::SimdSha256Hash               0      0.00%     99.18% # attempts to use FU when none available (Count)
system.cpu.statFuBusy::SimdSha256Hash2              0      0.00%     99.18% # attempts to use FU when none available (Count)
system.cpu.statFuBusy::SimdShaSigma2                0      0.00%     99.18% # attempts to use FU when none available (Count)
system.cpu.statFuBusy::SimdShaSigma3                0      0.00%     99.18% # attempts to use FU when none available (Count)
system.cpu.statFuBusy::SimdPredAlu                  0      0.00%     99.18% # attempts to use FU when none available (Count)
system.cpu.statFuBusy::MemRead                     36      0.40%     99.57% # attempts to use FU when none available (Count)
system.cpu.statFuBusy::MemWrite                    19      0.21%     99.78% # attempts to use FU when none available (Count)
system.cpu.statFuBusy::FloatMemRead                 9      0.10%     99.88% # attempts to use FU when none available (Count)
system.cpu.statFuBusy::FloatMemWrite               11      0.12%    100.00% # attempts to use FU when none available (Count)
system.cpu.statFuBusy::IprAccess                    0      0.00%    100.00% # attempts to use FU when none available (Count)
system.cpu.statFuBusy::InstPrefetch                 0      0.00%    100.00% # attempts to use FU when none available (Count)
system.cpu.statIssuedInstType_0::No_OpClass         5041      0.08%      0.08% # Number of instructions issued per FU type, per thread (Count)
system.cpu.statIssuedInstType_0::IntAlu       4751990     79.19%     79.28% # Number of instructions issued per FU type, per thread (Count)
system.cpu.statIssuedInstType_0::IntMult          570      0.01%     79.29% # Number of instructions issued per FU type, per thread (Count)
system.cpu.statIssuedInstType_0::IntDiv            21      0.00%     79.29% # Number of instructions issued per FU type, per thread (Count)
system.cpu.statIssuedInstType_0::FloatAdd          139      0.00%     79.29% # Number of instructions issued per FU type, per thread (Count)
system.cpu.statIssuedInstType_0::FloatCmp            0      0.00%     79.29% # Number of instructions issued per FU type, per thread (Count)
system.cpu.statIssuedInstType_0::FloatCvt            0      0.00%     79.29% # Number of instructions issued per FU type, per thread (Count)
system.cpu.statIssuedInstType_0::FloatMult            0      0.00%     79.29% # Number of instructions issued per FU type, per thread (Count)
system.cpu.statIssuedInstType_0::FloatMultAcc            0      0.00%     79.29% # Number of instructions issued per FU type, per thread (Count)
system.cpu.statIssuedInstType_0::FloatDiv            0      0.00%     79.29% # Number of instructions issued per FU type, per thread (Count)
system.cpu.statIssuedInstType_0::FloatMisc            0      0.00%     79.29% # Number of instructions issued per FU type, per thread (Count)
system.cpu.statIssuedInstType_0::FloatSqrt            0      0.00%     79.29% # Number of instructions issued per FU type, per thread (Count)
system.cpu.statIssuedInstType_0::SimdAdd        72658      1.21%     80.50% # Number of instructions issued per FU type, per thread (Count)
system.cpu.statIssuedInstType_0::SimdAddAcc            0      0.00%     80.50% # Number of instructions issued per FU type, per thread (Count)
system.cpu.statIssuedInstType_0::SimdAlu          158      0.00%     80.50% # Number of instructions issued per FU type, per thread (Count)
system.cpu.statIssuedInstType_0::SimdCmp           18      0.00%     80.50% # Number of instructions issued per FU type, per thread (Count)
system.cpu.statIssuedInstType_0::SimdCvt           78      0.00%     80.50% # Number of instructions issued per FU type, per thread (Count)
system.cpu.statIssuedInstType_0::SimdMisc          249      0.00%     80.51% # Number of instructions issued per FU type, per thread (Count)
system.cpu.statIssuedInstType_0::SimdMult            0      0.00%     80.51% # Number of instructions issued per FU type, per thread (Count)
system.cpu.statIssuedInstType_0::SimdMultAcc            0      0.00%     80.51% # Number of instructions issued per FU type, per thread (Count)
system.cpu.statIssuedInstType_0::SimdShift            0      0.00%     80.51% # Number of instructions issued per FU type, per thread (Count)
system.cpu.statIssuedInstType_0::SimdShiftAcc            0      0.00%     80.51% # Number of instructions issued per FU type, per thread (Count)
system.cpu.statIssuedInstType_0::SimdDiv            0      0.00%     80.51% # Number of instructions issued per FU type, per thread (Count)
system.cpu.statIssuedInstType_0::SimdSqrt            0      0.00%     80.51% # Number of instructions issued per FU type, per thread (Count)
system.cpu.statIssuedInstType_0::SimdFloatAdd            0      0.00%     80.51% # Number of instructions issued per FU type, per thread (Count)
system.cpu.statIssuedInstType_0::SimdFloatAlu            0      0.00%     80.51% # Number of instructions issued per FU type, per thread (Count)
system.cpu.statIssuedInstType_0::SimdFloatCmp            0      0.00%     80.51% # Number of instructions issued per FU type, per thread (Count)
system.cpu.statIssuedInstType_0::SimdFloatCvt           21      0.00%     80.51% # Number of instructions issued per FU type, per thread (Count)
system.cpu.statIssuedInstType_0::SimdFloatDiv            0      0.00%     80.51% # Number of instructions issued per FU type, per thread (Count)
system.cpu.statIssuedInstType_0::SimdFloatMisc            0      0.00%     80.51% # Number of instructions issued per FU type, per thread (Count)
system.cpu.statIssuedInstType_0::SimdFloatMult           22      0.00%     80.51% # Number of instructions issued per FU type, per thread (Count)
system.cpu.statIssuedInstType_0::SimdFloatMultAcc            0      0.00%     80.51% # Number of instructions issued per FU type, per thread (Count)
system.cpu.statIssuedInstType_0::SimdFloatSqrt            0      0.00%     80.51% # Number of instructions issued per FU type, per thread (Count)
system.cpu.statIssuedInstType_0::SimdReduceAdd            0      0.00%     80.51% # Number of instructions issued per FU type, per thread (Count)
system.cpu.statIssuedInstType_0::SimdReduceAlu            0      0.00%     80.51% # Number of instructions issued per FU type, per thread (Count)
system.cpu.statIssuedInstType_0::SimdReduceCmp            0      0.00%     80.51% # Number of instructions issued per FU type, per thread (Count)
system.cpu.statIssuedInstType_0::SimdFloatReduceAdd            0      0.00%     80.51% # Number of instructions issued per FU type, per thread (Count)
system.cpu.statIssuedInstType_0::SimdFloatReduceCmp            0      0.00%     80.51% # Number of instructions issued per FU type, per thread (Count)
system.cpu.statIssuedInstType_0::SimdAes            0      0.00%     80.51% # Number of instructions issued per FU type, per thread (Count)
system.cpu.statIssuedInstType_0::SimdAesMix            0      0.00%     80.51% # Number of instructions issued per FU type, per thread (Count)
system.cpu.statIssuedInstType_0::SimdSha1Hash            0      0.00%     80.51% # Number of instructions issued per FU type, per thread (Count)
system.cpu.statIssuedInstType_0::SimdSha1Hash2            0      0.00%     80.51% # Number of instructions issued per FU type, per thread (Count)
system.cpu.statIssuedInstType_0::SimdSha256Hash            0      0.00%     80.51% # Number of instructions issued per FU type, per thread (Count)
system.cpu.statIssuedInstType_0::SimdSha256Hash2            0      0.00%     80.51% # Number of instructions issued per FU type, per thread (Count)
system.cpu.statIssuedInstType_0::SimdShaSigma2            0      0.00%     80.51% # Number of instructions issued per FU type, per thread (Count)
system.cpu.statIssuedInstType_0::SimdShaSigma3            0      0.00%     80.51% # Number of instructions issued per FU type, per thread (Count)
system.cpu.statIssuedInstType_0::SimdPredAlu            0      0.00%     80.51% # Number of instructions issued per FU type, per thread (Count)
system.cpu.statIssuedInstType_0::MemRead       561169      9.35%     89.86% # Number of instructions issued per FU type, per thread (Count)
system.cpu.statIssuedInstType_0::MemWrite       534738      8.91%     98.77% # Number of instructions issued per FU type, per thread (Count)
system.cpu.statIssuedInstType_0::FloatMemRead          139      0.00%     98.78% # Number of instructions issued per FU type, per thread (Count)
system.cpu.statIssuedInstType_0::FloatMemWrite        73463      1.22%    100.00% # Number of instructions issued per FU type, per thread (Count)
system.cpu.statIssuedInstType_0::IprAccess            0      0.00%    100.00% # Number of instructions issued per FU type, per thread (Count)
system.cpu.statIssuedInstType_0::InstPrefetch            0      0.00%    100.00% # Number of instructions issued per FU type, per thread (Count)
system.cpu.statIssuedInstType_0::total        6000474                       # Number of instructions issued per FU type, per thread (Count)
system.cpu.issueRate                         0.242614                       # Inst issue rate ((Count/Cycle))
system.cpu.fuBusy                                9100                       # FU busy when requested (Count)
system.cpu.fuBusyRate                        0.001517                       # FU busy rate (busy events/executed inst) ((Count/Count))
system.cpu.intInstQueueReads                 36284224                       # Number of integer instruction queue reads (Count)
system.cpu.intInstQueueWrites                 6299987                       # Number of integer instruction queue writes (Count)
system.cpu.intInstQueueWakeupAccesses         5737068                       # Number of integer instruction queue wakeup accesses (Count)
system.cpu.fpInstQueueReads                    421806                       # Number of floating instruction queue reads (Count)
system.cpu.fpInstQueueWrites                   232109                       # Number of floating instruction queue writes (Count)
system.cpu.fpInstQueueWakeupAccesses           203398                       # Number of floating instruction queue wakeup accesses (Count)
system.cpu.vecInstQueueReads                        0                       # Number of vector instruction queue reads (Count)
system.cpu.vecInstQueueWrites                       0                       # Number of vector instruction queue writes (Count)
system.cpu.vecInstQueueWakeupAccesses               0                       # Number of vector instruction queue wakeup accesses (Count)
system.cpu.intAluAccesses                     5793553                       # Number of integer alu accesses (Count)
system.cpu.fpAluAccesses                       210980                       # Number of floating point alu accesses (Count)
system.cpu.vecAluAccesses                           0                       # Number of vector alu accesses (Count)
system.cpu.idleCycles                               0                       # Number of cycles IEW is idle (Cycle)
system.cpu.squashCycles                         21013                       # Number of cycles IEW is squashing (Cycle)
system.cpu.blockCycles                       17183843                       # Number of cycles IEW is blocking (Cycle)
system.cpu.unblockCycles                      1590884                       # Number of cycles IEW is unblocking (Cycle)
system.cpu.dispatchedInsts                    6120256                       # Number of instructions dispatched to IQ (Count)
system.cpu.dispSquashedInsts                      212                       # Number of squashed instructions skipped by dispatch (Count)
system.cpu.dispLoadInsts                       564992                       # Number of dispatched load instructions (Count)
system.cpu.dispStoreInsts                      609352                       # Number of dispatched store instructions (Count)
system.cpu.dispNonSpecInsts                        28                       # Number of dispatched non-speculative instructions (Count)
system.cpu.iqFullEvents                        123060                       # Number of times the IQ has become full, causing a stall (Count)
system.cpu.lsqFullEvents                      1242063                       # Number of times the LSQ has become full, causing a stall (Count)
system.cpu.memOrderViolationEvents                 29                       # Number of memory order violations (Count)
system.cpu.predictedTakenIncorrect              14142                       # Number of branches that were predicted taken incorrectly (Count)
system.cpu.predictedNotTakenIncorrect           10548                       # Number of branches that were predicted not taken incorrectly (Count)
system.cpu.branchMispredicts                    24690                       # Number of branch mispredicts detected at execute (Count)
system.cpu.numInsts                           5959374                       # Number of executed instructions (Count)
system.cpu.loadInsts                           559416                       # Number of load instructions executed (Count)
system.cpu.numSquashedInsts                     41099                       # Number of squashed instructions skipped in execute (Count)
system.cpu.numSwp                                   0                       # Number of swp insts executed (Count)
system.cpu.numNop                                   0                       # Number of nop insts executed (Count)
system.cpu.numRefs                            1167494                       # Number of memory reference insts executed (Count)
system.cpu.numBranches                         382816                       # Number of branches executed (Count)
system.cpu.numStoreInsts                       608078                       # Number of stores executed (Count)
system.cpu.numRate                           0.240953                       # Inst execution rate ((Count/Cycle))
system.cpu.instsToCommit                      5948746                       # Cumulative count of insts sent to commit (Count)
system.cpu.writebackCount                     5940466                       # Cumulative count of insts written-back (Count)
system.cpu.producerInst                       4042653                       # Number of instructions producing a value (Count)
system.cpu.consumerInst                       8409405                       # Number of instructions consuming a value (Count)
system.cpu.wbRate                            0.240188                       # Insts written-back per cycle ((Count/Cycle))
system.cpu.wbFanout                          0.480730                       # Average fanout of values written-back ((Count/Count))
system.cpu.timesIdled                             312                       # Number of times that the entire CPU went into an idle state and unscheduled itself (Count)
system.cpu.idleCycles                           37043                       # Total number of cycles that the CPU has spent unscheduled due to idling (Cycle)
system.cpu.committedInsts                     3640936                       # Number of Instructions Simulated (Count)
system.cpu.committedOps                       5708428                       # Number of Ops (including micro ops) Simulated (Count)
system.cpu.cpi                               6.792911                       # CPI: Cycles Per Instruction ((Cycle/Count))
system.cpu.totalCpi                          6.792911                       # CPI: Total CPI of All Threads ((Cycle/Count))
system.cpu.ipc                               0.147212                       # IPC: Instructions Per Cycle ((Count/Cycle))
system.cpu.totalIpc                          0.147212                       # IPC: Total IPC of All Threads ((Count/Cycle))
system.cpu.intRegfileReads                   10070784                       # Number of integer regfile reads (Count)
system.cpu.intRegfileWrites                   4815751                       # Number of integer regfile writes (Count)
system.cpu.fpRegfileReads                      420175                       # Number of floating regfile reads (Count)
system.cpu.fpRegfileWrites                     137225                       # Number of floating regfile writes (Count)
system.cpu.ccRegfileReads                     3404768                       # number of cc regfile reads (Count)
system.cpu.ccRegfileWrites                    3837660                       # number of cc regfile writes (Count)
system.cpu.miscRegfileReads                   1958050                       # number of misc regfile reads (Count)
system.cpu.robFull                             786580                       # Number of times that the ROB becomes full (Count)
system.cpu.totalRobSizeAtEnterRA             14897512                       # Sum of number of entries in the ROB when the CPU would enter runahead (Count)
system.cpu.totalRobSizeAtExitRA              15744979                       # Sum of number of entries in the ROB when the CPU would exit runahead (Count)
system.cpu.enterRA                              95653                       # number of times the CPU would enter runahead (Count)
system.cpu.avgRobSizeAtEnterRA                155.745                       # Average number of entries in the ROB when the CPU would enter runahead (Ratio)
system.cpu.avgRobSizeAtExitRA                 164.605                       # Average number of entries in the ROB when the CPU would exit runahead (Ratio)
system.cpu.robFullRA                             4502                       # how many times the ROB becomes full, when CPU would be in runahead (Count)
system.cpu.totalInsertedRA                     847467                       # total number of instructions inserted into ROB when the CPU would be in runahead (Count)
system.cpu.insertedAvgRA                        8.860                       # average number of instructions inserted into ROB when the CPU would be in runahead (Ratio)
system.cpu.totalDecodedRA                      719024                       # total number of instructions decoded when the CPU would be in runahead (Count)
system.cpu.decodedAvgRA                         7.517                       # average number of instructions decoded when the CPU would be in runahead (Ratio)
system.cpu.fullROBstalls                       777500                       # number of stalls caused by full ROB (Count)
system.cpu.MemDepUnit__0.insertedLoads         564992                       # Number of loads inserted to the mem dependence unit. (Count)
system.cpu.MemDepUnit__0.insertedStores        609352                       # Number of stores inserted to the mem dependence unit. (Count)
system.cpu.MemDepUnit__0.conflictingLoads       371440                       # Number of conflicting loads. (Count)
system.cpu.MemDepUnit__0.conflictingStores       413037                       # Number of conflicting stores. (Count)
system.cpu.MemDepUnit__1.insertedLoads              0                       # Number of loads inserted to the mem dependence unit. (Count)
system.cpu.MemDepUnit__1.insertedStores             0                       # Number of stores inserted to the mem dependence unit. (Count)
system.cpu.MemDepUnit__1.conflictingLoads            0                       # Number of conflicting loads. (Count)
system.cpu.MemDepUnit__1.conflictingStores            0                       # Number of conflicting stores. (Count)
system.cpu.MemDepUnit__2.insertedLoads              0                       # Number of loads inserted to the mem dependence unit. (Count)
system.cpu.MemDepUnit__2.insertedStores             0                       # Number of stores inserted to the mem dependence unit. (Count)
system.cpu.MemDepUnit__2.conflictingLoads            0                       # Number of conflicting loads. (Count)
system.cpu.MemDepUnit__2.conflictingStores            0                       # Number of conflicting stores. (Count)
system.cpu.MemDepUnit__3.insertedLoads              0                       # Number of loads inserted to the mem dependence unit. (Count)
system.cpu.MemDepUnit__3.insertedStores             0                       # Number of stores inserted to the mem dependence unit. (Count)
system.cpu.MemDepUnit__3.conflictingLoads            0                       # Number of conflicting loads. (Count)
system.cpu.MemDepUnit__3.conflictingStores            0                       # Number of conflicting stores. (Count)
system.cpu.branchPred.lookups                  460856                       # Number of BP lookups (Count)
system.cpu.branchPred.condPredicted            439514                       # Number of conditional branches predicted (Count)
system.cpu.branchPred.condIncorrect             20935                       # Number of conditional branches incorrect (Count)
system.cpu.branchPred.BTBLookups               321921                       # Number of BTB lookups (Count)
system.cpu.branchPred.BTBHits                  320950                       # Number of BTB hits (Count)
system.cpu.branchPred.BTBHitRatio            0.996984                       # BTB Hit Ratio (Ratio)
system.cpu.branchPred.RASUsed                     553                       # Number of times the RAS was used to get a target. (Count)
system.cpu.branchPred.RASIncorrect                  0                       # Number of incorrect RAS predictions. (Count)
system.cpu.branchPred.indirectLookups             454                       # Number of indirect predictor lookups. (Count)
system.cpu.branchPred.indirectHits                 20                       # Number of indirect target hits. (Count)
system.cpu.branchPred.indirectMisses              434                       # Number of indirect misses. (Count)
system.cpu.branchPred.indirectMispredicted           96                       # Number of mispredicted indirect branches. (Count)
system.cpu.commit.commitSquashedInsts          411537                       # The number of squashed insts skipped by commit (Count)
system.cpu.commit.commitNonSpecStalls              18                       # The number of times commit has been forced to stall to communicate backwards (Count)
system.cpu.commit.branchMispredicts             20845                       # The number of times a branch was mispredicted (Count)
system.cpu.commit.numCommittedDist::samples     24631930                       # Number of insts commited each cycle (Count)
system.cpu.commit.numCommittedDist::mean     0.231749                       # Number of insts commited each cycle (Count)
system.cpu.commit.numCommittedDist::stdev     1.078347                       # Number of insts commited each cycle (Count)
system.cpu.commit.numCommittedDist::underflows            0      0.00%      0.00% # Number of insts commited each cycle (Count)
system.cpu.commit.numCommittedDist::0        22582159     91.68%     91.68% # Number of insts commited each cycle (Count)
system.cpu.commit.numCommittedDist::1         1231066      5.00%     96.68% # Number of insts commited each cycle (Count)
system.cpu.commit.numCommittedDist::2          147288      0.60%     97.27% # Number of insts commited each cycle (Count)
system.cpu.commit.numCommittedDist::3           42960      0.17%     97.45% # Number of insts commited each cycle (Count)
system.cpu.commit.numCommittedDist::4           60765      0.25%     97.70% # Number of insts commited each cycle (Count)
system.cpu.commit.numCommittedDist::5          230257      0.93%     98.63% # Number of insts commited each cycle (Count)
system.cpu.commit.numCommittedDist::6           16585      0.07%     98.70% # Number of insts commited each cycle (Count)
system.cpu.commit.numCommittedDist::7            6749      0.03%     98.72% # Number of insts commited each cycle (Count)
system.cpu.commit.numCommittedDist::8          314101      1.28%    100.00% # Number of insts commited each cycle (Count)
system.cpu.commit.numCommittedDist::overflows            0      0.00%    100.00% # Number of insts commited each cycle (Count)
system.cpu.commit.numCommittedDist::min_value            0                       # Number of insts commited each cycle (Count)
system.cpu.commit.numCommittedDist::max_value            8                       # Number of insts commited each cycle (Count)
system.cpu.commit.numCommittedDist::total     24631930                       # Number of insts commited each cycle (Count)
system.cpu.commit.instsCommitted              3640936                       # Number of instructions committed (Count)
system.cpu.commit.opsCommitted                5708428                       # Number of ops (including micro ops) committed (Count)
system.cpu.commit.memRefs                     1145642                       # Number of memory references committed (Count)
system.cpu.commit.loads                        545743                       # Number of loads committed (Count)
system.cpu.commit.amos                              0                       # Number of atomic instructions committed (Count)
system.cpu.commit.membars                          12                       # Number of memory barriers committed (Count)
system.cpu.commit.branches                     359465                       # Number of branches committed (Count)
system.cpu.commit.vectorInstructions                0                       # Number of committed Vector instructions. (Count)
system.cpu.commit.floating                     189743                       # Number of committed floating point instructions. (Count)
system.cpu.commit.integer                     5580220                       # Number of committed integer instructions. (Count)
system.cpu.commit.functionCalls                   280                       # Number of function calls committed. (Count)
system.cpu.commit.committedInstType_0::No_OpClass         4527      0.08%      0.08% # Class of committed instruction (Count)
system.cpu.commit.committedInstType_0::IntAlu      4491576     78.68%     78.76% # Class of committed instruction (Count)
system.cpu.commit.committedInstType_0::IntMult          523      0.01%     78.77% # Class of committed instruction (Count)
system.cpu.commit.committedInstType_0::IntDiv           21      0.00%     78.77% # Class of committed instruction (Count)
system.cpu.commit.committedInstType_0::FloatAdd          137      0.00%     78.77% # Class of committed instruction (Count)
system.cpu.commit.committedInstType_0::FloatCmp            0      0.00%     78.77% # Class of committed instruction (Count)
system.cpu.commit.committedInstType_0::FloatCvt            0      0.00%     78.77% # Class of committed instruction (Count)
system.cpu.commit.committedInstType_0::FloatMult            0      0.00%     78.77% # Class of committed instruction (Count)
system.cpu.commit.committedInstType_0::FloatMultAcc            0      0.00%     78.77% # Class of committed instruction (Count)
system.cpu.commit.committedInstType_0::FloatDiv            0      0.00%     78.77% # Class of committed instruction (Count)
system.cpu.commit.committedInstType_0::FloatMisc            0      0.00%     78.77% # Class of committed instruction (Count)
system.cpu.commit.committedInstType_0::FloatSqrt            0      0.00%     78.77% # Class of committed instruction (Count)
system.cpu.commit.committedInstType_0::SimdAdd        65536      1.15%     79.92% # Class of committed instruction (Count)
system.cpu.commit.committedInstType_0::SimdAddAcc            0      0.00%     79.92% # Class of committed instruction (Count)
system.cpu.commit.committedInstType_0::SimdAlu          100      0.00%     79.92% # Class of committed instruction (Count)
system.cpu.commit.committedInstType_0::SimdCmp           12      0.00%     79.92% # Class of committed instruction (Count)
system.cpu.commit.committedInstType_0::SimdCvt           74      0.00%     79.93% # Class of committed instruction (Count)
system.cpu.commit.committedInstType_0::SimdMisc          244      0.00%     79.93% # Class of committed instruction (Count)
system.cpu.commit.committedInstType_0::SimdMult            0      0.00%     79.93% # Class of committed instruction (Count)
system.cpu.commit.committedInstType_0::SimdMultAcc            0      0.00%     79.93% # Class of committed instruction (Count)
system.cpu.commit.committedInstType_0::SimdShift            0      0.00%     79.93% # Class of committed instruction (Count)
system.cpu.commit.committedInstType_0::SimdShiftAcc            0      0.00%     79.93% # Class of committed instruction (Count)
system.cpu.commit.committedInstType_0::SimdDiv            0      0.00%     79.93% # Class of committed instruction (Count)
system.cpu.commit.committedInstType_0::SimdSqrt            0      0.00%     79.93% # Class of committed instruction (Count)
system.cpu.commit.committedInstType_0::SimdFloatAdd            0      0.00%     79.93% # Class of committed instruction (Count)
system.cpu.commit.committedInstType_0::SimdFloatAlu            0      0.00%     79.93% # Class of committed instruction (Count)
system.cpu.commit.committedInstType_0::SimdFloatCmp            0      0.00%     79.93% # Class of committed instruction (Count)
system.cpu.commit.committedInstType_0::SimdFloatCvt           18      0.00%     79.93% # Class of committed instruction (Count)
system.cpu.commit.committedInstType_0::SimdFloatDiv            0      0.00%     79.93% # Class of committed instruction (Count)
system.cpu.commit.committedInstType_0::SimdFloatMisc            0      0.00%     79.93% # Class of committed instruction (Count)
system.cpu.commit.committedInstType_0::SimdFloatMult           18      0.00%     79.93% # Class of committed instruction (Count)
system.cpu.commit.committedInstType_0::SimdFloatMultAcc            0      0.00%     79.93% # Class of committed instruction (Count)
system.cpu.commit.committedInstType_0::SimdFloatSqrt            0      0.00%     79.93% # Class of committed instruction (Count)
system.cpu.commit.committedInstType_0::SimdReduceAdd            0      0.00%     79.93% # Class of committed instruction (Count)
system.cpu.commit.committedInstType_0::SimdReduceAlu            0      0.00%     79.93% # Class of committed instruction (Count)
system.cpu.commit.committedInstType_0::SimdReduceCmp            0      0.00%     79.93% # Class of committed instruction (Count)
system.cpu.commit.committedInstType_0::SimdFloatReduceAdd            0      0.00%     79.93% # Class of committed instruction (Count)
system.cpu.commit.committedInstType_0::SimdFloatReduceCmp            0      0.00%     79.93% # Class of committed instruction (Count)
system.cpu.commit.committedInstType_0::SimdAes            0      0.00%     79.93% # Class of committed instruction (Count)
system.cpu.commit.committedInstType_0::SimdAesMix            0      0.00%     79.93% # Class of committed instruction (Count)
system.cpu.commit.committedInstType_0::SimdSha1Hash            0      0.00%     79.93% # Class of committed instruction (Count)
system.cpu.commit.committedInstType_0::SimdSha1Hash2            0      0.00%     79.93% # Class of committed instruction (Count)
system.cpu.commit.committedInstType_0::SimdSha256Hash            0      0.00%     79.93% # Class of committed instruction (Count)
system.cpu.commit.committedInstType_0::SimdSha256Hash2            0      0.00%     79.93% # Class of committed instruction (Count)
system.cpu.commit.committedInstType_0::SimdShaSigma2            0      0.00%     79.93% # Class of committed instruction (Count)
system.cpu.commit.committedInstType_0::SimdShaSigma3            0      0.00%     79.93% # Class of committed instruction (Count)
system.cpu.commit.committedInstType_0::SimdPredAlu            0      0.00%     79.93% # Class of committed instruction (Count)
system.cpu.commit.committedInstType_0::MemRead       545644      9.56%     89.49% # Class of committed instruction (Count)
system.cpu.commit.committedInstType_0::MemWrite       533897      9.35%     98.84% # Class of committed instruction (Count)
system.cpu.commit.committedInstType_0::FloatMemRead           99      0.00%     98.84% # Class of committed instruction (Count)
system.cpu.commit.committedInstType_0::FloatMemWrite        66002      1.16%    100.00% # Class of committed instruction (Count)
system.cpu.commit.committedInstType_0::IprAccess            0      0.00%    100.00% # Class of committed instruction (Count)
system.cpu.commit.committedInstType_0::InstPrefetch            0      0.00%    100.00% # Class of committed instruction (Count)
system.cpu.commit.committedInstType_0::total      5708428                       # Class of committed instruction (Count)
system.cpu.commit.commitEligibleSamples        314101                       # number cycles where commit BW limit reached (Cycle)
system.cpu.dcache.demandHits::cpu.data         937355                       # number of demand (read+write) hits (Count)
system.cpu.dcache.demandHits::total            937355                       # number of demand (read+write) hits (Count)
system.cpu.dcache.overallHits::cpu.data        937355                       # number of overall hits (Count)
system.cpu.dcache.overallHits::total           937355                       # number of overall hits (Count)
system.cpu.dcache.demandMisses::cpu.data       218883                       # number of demand (read+write) misses (Count)
system.cpu.dcache.demandMisses::total          218883                       # number of demand (read+write) misses (Count)
system.cpu.dcache.overallMisses::cpu.data       218883                       # number of overall misses (Count)
system.cpu.dcache.overallMisses::total         218883                       # number of overall misses (Count)
system.cpu.dcache.demandMissLatency::cpu.data   8921609177                       # number of demand (read+write) miss ticks (Tick)
system.cpu.dcache.demandMissLatency::total   8921609177                       # number of demand (read+write) miss ticks (Tick)
system.cpu.dcache.overallMissLatency::cpu.data   8921609177                       # number of overall miss ticks (Tick)
system.cpu.dcache.overallMissLatency::total   8921609177                       # number of overall miss ticks (Tick)
system.cpu.dcache.demandAccesses::cpu.data      1156238                       # number of demand (read+write) accesses (Count)
system.cpu.dcache.demandAccesses::total       1156238                       # number of demand (read+write) accesses (Count)
system.cpu.dcache.overallAccesses::cpu.data      1156238                       # number of overall (read+write) accesses (Count)
system.cpu.dcache.overallAccesses::total      1156238                       # number of overall (read+write) accesses (Count)
system.cpu.dcache.demandMissRate::cpu.data     0.189306                       # miss rate for demand accesses (Ratio)
system.cpu.dcache.demandMissRate::total      0.189306                       # miss rate for demand accesses (Ratio)
system.cpu.dcache.overallMissRate::cpu.data     0.189306                       # miss rate for overall accesses (Ratio)
system.cpu.dcache.overallMissRate::total     0.189306                       # miss rate for overall accesses (Ratio)
system.cpu.dcache.demandAvgMissLatency::cpu.data 40759.717187                       # average overall miss latency ((Cycle/Count))
system.cpu.dcache.demandAvgMissLatency::total 40759.717187                       # average overall miss latency ((Cycle/Count))
system.cpu.dcache.overallAvgMissLatency::cpu.data 40759.717187                       # average overall miss latency ((Cycle/Count))
system.cpu.dcache.overallAvgMissLatency::total 40759.717187                       # average overall miss latency ((Cycle/Count))
system.cpu.dcache.blockedCycles::no_mshrs        27912                       # number of cycles access was blocked (Cycle)
system.cpu.dcache.blockedCycles::no_targets            0                       # number of cycles access was blocked (Cycle)
system.cpu.dcache.blockedCauses::no_mshrs          785                       # number of times access was blocked (Count)
system.cpu.dcache.blockedCauses::no_targets            0                       # number of times access was blocked (Count)
system.cpu.dcache.avgBlocked::no_mshrs      35.556688                       # average number of cycles each access was blocked ((Cycle/Count))
system.cpu.dcache.avgBlocked::no_targets          nan                       # average number of cycles each access was blocked ((Cycle/Count))
system.cpu.dcache.writebacks::writebacks       218067                       # number of writebacks (Count)
system.cpu.dcache.writebacks::total            218067                       # number of writebacks (Count)
system.cpu.dcache.demandMshrHits::cpu.data          213                       # number of demand (read+write) MSHR hits (Count)
system.cpu.dcache.demandMshrHits::total           213                       # number of demand (read+write) MSHR hits (Count)
system.cpu.dcache.overallMshrHits::cpu.data          213                       # number of overall MSHR hits (Count)
system.cpu.dcache.overallMshrHits::total          213                       # number of overall MSHR hits (Count)
system.cpu.dcache.demandMshrMisses::cpu.data       218670                       # number of demand (read+write) MSHR misses (Count)
system.cpu.dcache.demandMshrMisses::total       218670                       # number of demand (read+write) MSHR misses (Count)
system.cpu.dcache.overallMshrMisses::cpu.data       218670                       # number of overall MSHR misses (Count)
system.cpu.dcache.overallMshrMisses::total       218670                       # number of overall MSHR misses (Count)
system.cpu.dcache.demandMshrMissLatency::cpu.data   8581510033                       # number of demand (read+write) MSHR miss ticks (Tick)
system.cpu.dcache.demandMshrMissLatency::total   8581510033                       # number of demand (read+write) MSHR miss ticks (Tick)
system.cpu.dcache.overallMshrMissLatency::cpu.data   8581510033                       # number of overall MSHR miss ticks (Tick)
system.cpu.dcache.overallMshrMissLatency::total   8581510033                       # number of overall MSHR miss ticks (Tick)
system.cpu.dcache.demandMshrMissRate::cpu.data     0.189122                       # mshr miss ratio for demand accesses (Ratio)
system.cpu.dcache.demandMshrMissRate::total     0.189122                       # mshr miss ratio for demand accesses (Ratio)
system.cpu.dcache.overallMshrMissRate::cpu.data     0.189122                       # mshr miss ratio for overall accesses (Ratio)
system.cpu.dcache.overallMshrMissRate::total     0.189122                       # mshr miss ratio for overall accesses (Ratio)
system.cpu.dcache.demandAvgMshrMissLatency::cpu.data 39244.112283                       # average overall mshr miss latency ((Cycle/Count))
system.cpu.dcache.demandAvgMshrMissLatency::total 39244.112283                       # average overall mshr miss latency ((Cycle/Count))
system.cpu.dcache.overallAvgMshrMissLatency::cpu.data 39244.112283                       # average overall mshr miss latency ((Cycle/Count))
system.cpu.dcache.overallAvgMshrMissLatency::total 39244.112283                       # average overall mshr miss latency ((Cycle/Count))
system.cpu.dcache.replacements                 218158                       # number of replacements (Count)
system.cpu.dcache.l1Miss                       210486                       # number of times a miss in L1 occurred in normal mode (Count)
system.cpu.dcache.ReadReq.hits::cpu.data       345852                       # number of ReadReq hits (Count)
system.cpu.dcache.ReadReq.hits::total          345852                       # number of ReadReq hits (Count)
system.cpu.dcache.ReadReq.misses::cpu.data       210486                       # number of ReadReq misses (Count)
system.cpu.dcache.ReadReq.misses::total        210486                       # number of ReadReq misses (Count)
system.cpu.dcache.ReadReq.missLatency::cpu.data   8423286608                       # number of ReadReq miss ticks (Tick)
system.cpu.dcache.ReadReq.missLatency::total   8423286608                       # number of ReadReq miss ticks (Tick)
system.cpu.dcache.ReadReq.accesses::cpu.data       556338                       # number of ReadReq accesses(hits+misses) (Count)
system.cpu.dcache.ReadReq.accesses::total       556338                       # number of ReadReq accesses(hits+misses) (Count)
system.cpu.dcache.ReadReq.missRate::cpu.data     0.378342                       # miss rate for ReadReq accesses (Ratio)
system.cpu.dcache.ReadReq.missRate::total     0.378342                       # miss rate for ReadReq accesses (Ratio)
system.cpu.dcache.ReadReq.avgMissLatency::cpu.data 40018.274888                       # average ReadReq miss latency ((Tick/Count))
system.cpu.dcache.ReadReq.avgMissLatency::total 40018.274888                       # average ReadReq miss latency ((Tick/Count))
system.cpu.dcache.ReadReq.mshrHits::cpu.data          211                       # number of ReadReq MSHR hits (Count)
system.cpu.dcache.ReadReq.mshrHits::total          211                       # number of ReadReq MSHR hits (Count)
system.cpu.dcache.ReadReq.mshrMisses::cpu.data       210275                       # number of ReadReq MSHR misses (Count)
system.cpu.dcache.ReadReq.mshrMisses::total       210275                       # number of ReadReq MSHR misses (Count)
system.cpu.dcache.ReadReq.mshrMissLatency::cpu.data   8095884232                       # number of ReadReq MSHR miss ticks (Tick)
system.cpu.dcache.ReadReq.mshrMissLatency::total   8095884232                       # number of ReadReq MSHR miss ticks (Tick)
system.cpu.dcache.ReadReq.mshrMissRate::cpu.data     0.377963                       # mshr miss rate for ReadReq accesses (Ratio)
system.cpu.dcache.ReadReq.mshrMissRate::total     0.377963                       # mshr miss rate for ReadReq accesses (Ratio)
system.cpu.dcache.ReadReq.avgMshrMissLatency::cpu.data 38501.411162                       # average ReadReq mshr miss latency ((Tick/Count))
system.cpu.dcache.ReadReq.avgMshrMissLatency::total 38501.411162                       # average ReadReq mshr miss latency ((Tick/Count))
system.cpu.dcache.WriteReq.hits::cpu.data       591503                       # number of WriteReq hits (Count)
system.cpu.dcache.WriteReq.hits::total         591503                       # number of WriteReq hits (Count)
system.cpu.dcache.WriteReq.misses::cpu.data         8397                       # number of WriteReq misses (Count)
system.cpu.dcache.WriteReq.misses::total         8397                       # number of WriteReq misses (Count)
system.cpu.dcache.WriteReq.missLatency::cpu.data    498322569                       # number of WriteReq miss ticks (Tick)
system.cpu.dcache.WriteReq.missLatency::total    498322569                       # number of WriteReq miss ticks (Tick)
system.cpu.dcache.WriteReq.accesses::cpu.data       599900                       # number of WriteReq accesses(hits+misses) (Count)
system.cpu.dcache.WriteReq.accesses::total       599900                       # number of WriteReq accesses(hits+misses) (Count)
system.cpu.dcache.WriteReq.missRate::cpu.data     0.013997                       # miss rate for WriteReq accesses (Ratio)
system.cpu.dcache.WriteReq.missRate::total     0.013997                       # miss rate for WriteReq accesses (Ratio)
system.cpu.dcache.WriteReq.avgMissLatency::cpu.data 59345.310111                       # average WriteReq miss latency ((Tick/Count))
system.cpu.dcache.WriteReq.avgMissLatency::total 59345.310111                       # average WriteReq miss latency ((Tick/Count))
system.cpu.dcache.WriteReq.mshrHits::cpu.data            2                       # number of WriteReq MSHR hits (Count)
system.cpu.dcache.WriteReq.mshrHits::total            2                       # number of WriteReq MSHR hits (Count)
system.cpu.dcache.WriteReq.mshrMisses::cpu.data         8395                       # number of WriteReq MSHR misses (Count)
system.cpu.dcache.WriteReq.mshrMisses::total         8395                       # number of WriteReq MSHR misses (Count)
system.cpu.dcache.WriteReq.mshrMissLatency::cpu.data    485625801                       # number of WriteReq MSHR miss ticks (Tick)
system.cpu.dcache.WriteReq.mshrMissLatency::total    485625801                       # number of WriteReq MSHR miss ticks (Tick)
system.cpu.dcache.WriteReq.mshrMissRate::cpu.data     0.013994                       # mshr miss rate for WriteReq accesses (Ratio)
system.cpu.dcache.WriteReq.mshrMissRate::total     0.013994                       # mshr miss rate for WriteReq accesses (Ratio)
system.cpu.dcache.WriteReq.avgMshrMissLatency::cpu.data 57847.028112                       # average WriteReq mshr miss latency ((Tick/Count))
system.cpu.dcache.WriteReq.avgMshrMissLatency::total 57847.028112                       # average WriteReq mshr miss latency ((Tick/Count))
system.cpu.dcache.power_state.pwrStateResidencyTicks::UNDEFINED   9299440680                       # Cumulative time (in ticks) in various power states (Tick)
system.cpu.dcache.tags.tagsInUse           510.642632                       # Average ticks per tags in use ((Tick/Count))
system.cpu.dcache.tags.totalRefs              1156025                       # Total number of references to valid blocks. (Count)
system.cpu.dcache.tags.sampledRefs             218670                       # Sample count of references to valid blocks. (Count)
system.cpu.dcache.tags.avgRefs               5.286619                       # Average number of references to valid blocks. ((Count/Count))
system.cpu.dcache.tags.warmupTick              146640                       # The tick when the warmup percentage was hit. (Tick)
system.cpu.dcache.tags.occupancies::cpu.data   510.642632                       # Average occupied blocks per tick, per requestor ((Count/Tick))
system.cpu.dcache.tags.avgOccs::cpu.data     0.997349                       # Average percentage of cache occupancy ((Ratio/Tick))
system.cpu.dcache.tags.avgOccs::total        0.997349                       # Average percentage of cache occupancy ((Ratio/Tick))
system.cpu.dcache.tags.occupanciesTaskId::1024          512                       # Occupied blocks per task id (Count)
system.cpu.dcache.tags.ageTaskId_1024::0          224                       # Occupied blocks per task id, per block age (Count)
system.cpu.dcache.tags.ageTaskId_1024::1          270                       # Occupied blocks per task id, per block age (Count)
system.cpu.dcache.tags.ageTaskId_1024::2           11                       # Occupied blocks per task id, per block age (Count)
system.cpu.dcache.tags.ageTaskId_1024::3            7                       # Occupied blocks per task id, per block age (Count)
system.cpu.dcache.tags.ratioOccsTaskId::1024            1                       # Ratio of occupied blocks and all blocks, per task id (Ratio)
system.cpu.dcache.tags.tagAccesses            9468574                       # Number of tag accesses (Count)
system.cpu.dcache.tags.dataAccesses           9468574                       # Number of data accesses (Count)
system.cpu.dcache.tags.power_state.pwrStateResidencyTicks::UNDEFINED   9299440680                       # Cumulative time (in ticks) in various power states (Tick)
system.cpu.decode.idleCycles                   396320                       # Number of cycles decode is idle (Cycle)
system.cpu.decode.blockedCycles              23347562                       # Number of cycles decode is blocked (Cycle)
system.cpu.decode.runCycles                    385004                       # Number of cycles decode is running (Cycle)
system.cpu.decode.unblockCycles                545614                       # Number of cycles decode is unblocking (Cycle)
system.cpu.decode.squashCycles                  21013                       # Number of cycles decode is squashing (Cycle)
system.cpu.decode.branchResolved               313848                       # Number of times decode resolved a branch (Count)
system.cpu.decode.branchMispred                   249                       # Number of times decode detected a branch misprediction (Count)
system.cpu.decode.decodedInsts                6293686                       # Number of instructions handled by decode (Count)
system.cpu.decode.squashedInsts                  1160                       # Number of squashed instructions handled by decode (Count)
system.cpu.fetch.icacheStallCycles             537405                       # Number of cycles fetch is stalled on an Icache miss (Cycle)
system.cpu.fetch.insts                        4053516                       # Number of instructions fetch has processed (Count)
system.cpu.fetch.branches                      460856                       # Number of branches that fetch encountered (Count)
system.cpu.fetch.predictedBranches             321523                       # Number of branches that fetch has predicted taken (Count)
system.cpu.fetch.cycles                      24135567                       # Number of cycles fetch has run and was not squashing or blocked (Cycle)
system.cpu.fetch.squashCycles                   42506                       # Number of cycles fetch has spent squashing (Cycle)
system.cpu.fetch.miscStallCycles                  167                       # Number of cycles fetch has spent waiting on interrupts, or bad addresses, or out of MSHRs (Cycle)
system.cpu.fetch.pendingTrapStallCycles           953                       # Number of stall cycles due to pending traps (Cycle)
system.cpu.fetch.pendingQuiesceStallCycles            8                       # Number of stall cycles due to pending quiesce instructions (Cycle)
system.cpu.fetch.icacheWaitRetryStallCycles          160                       # Number of stall cycles due to full MSHR (Cycle)
system.cpu.fetch.cacheLines                    510138                       # Number of cache lines fetched (Count)
system.cpu.fetch.icacheSquashes                  6707                       # Number of outstanding Icache misses that were squashed (Count)
system.cpu.fetch.nisnDist::samples           24695513                       # Number of instructions fetched each cycle (Total) (Count)
system.cpu.fetch.nisnDist::mean              0.261354                       # Number of instructions fetched each cycle (Total) (Count)
system.cpu.fetch.nisnDist::stdev             1.298445                       # Number of instructions fetched each cycle (Total) (Count)
system.cpu.fetch.nisnDist::underflows               0      0.00%      0.00% # Number of instructions fetched each cycle (Total) (Count)
system.cpu.fetch.nisnDist::0                 23541307     95.33%     95.33% # Number of instructions fetched each cycle (Total) (Count)
system.cpu.fetch.nisnDist::1                    49639      0.20%     95.53% # Number of instructions fetched each cycle (Total) (Count)
system.cpu.fetch.nisnDist::2                   135211      0.55%     96.07% # Number of instructions fetched each cycle (Total) (Count)
system.cpu.fetch.nisnDist::3                   144865      0.59%     96.66% # Number of instructions fetched each cycle (Total) (Count)
system.cpu.fetch.nisnDist::4                   133284      0.54%     97.20% # Number of instructions fetched each cycle (Total) (Count)
system.cpu.fetch.nisnDist::5                    63969      0.26%     97.46% # Number of instructions fetched each cycle (Total) (Count)
system.cpu.fetch.nisnDist::6                    61120      0.25%     97.71% # Number of instructions fetched each cycle (Total) (Count)
system.cpu.fetch.nisnDist::7                    49030      0.20%     97.91% # Number of instructions fetched each cycle (Total) (Count)
system.cpu.fetch.nisnDist::8                   517088      2.09%    100.00% # Number of instructions fetched each cycle (Total) (Count)
system.cpu.fetch.nisnDist::overflows                0      0.00%    100.00% # Number of instructions fetched each cycle (Total) (Count)
system.cpu.fetch.nisnDist::min_value                0                       # Number of instructions fetched each cycle (Total) (Count)
system.cpu.fetch.nisnDist::max_value                8                       # Number of instructions fetched each cycle (Total) (Count)
system.cpu.fetch.nisnDist::total             24695513                       # Number of instructions fetched each cycle (Total) (Count)
system.cpu.fetch.branchRate                  0.018634                       # Number of branch fetches per cycle (Ratio)
system.cpu.fetch.rate                        0.163894                       # Number of inst fetches per cycle ((Count/Cycle))
system.cpu.icache.demandHits::cpu.inst         509476                       # number of demand (read+write) hits (Count)
system.cpu.icache.demandHits::total            509476                       # number of demand (read+write) hits (Count)
system.cpu.icache.overallHits::cpu.inst        509476                       # number of overall hits (Count)
system.cpu.icache.overallHits::total           509476                       # number of overall hits (Count)
system.cpu.icache.demandMisses::cpu.inst          661                       # number of demand (read+write) misses (Count)
system.cpu.icache.demandMisses::total             661                       # number of demand (read+write) misses (Count)
system.cpu.icache.overallMisses::cpu.inst          661                       # number of overall misses (Count)
system.cpu.icache.overallMisses::total            661                       # number of overall misses (Count)
system.cpu.icache.demandMissLatency::cpu.inst     37501864                       # number of demand (read+write) miss ticks (Tick)
system.cpu.icache.demandMissLatency::total     37501864                       # number of demand (read+write) miss ticks (Tick)
system.cpu.icache.overallMissLatency::cpu.inst     37501864                       # number of overall miss ticks (Tick)
system.cpu.icache.overallMissLatency::total     37501864                       # number of overall miss ticks (Tick)
system.cpu.icache.demandAccesses::cpu.inst       510137                       # number of demand (read+write) accesses (Count)
system.cpu.icache.demandAccesses::total        510137                       # number of demand (read+write) accesses (Count)
system.cpu.icache.overallAccesses::cpu.inst       510137                       # number of overall (read+write) accesses (Count)
system.cpu.icache.overallAccesses::total       510137                       # number of overall (read+write) accesses (Count)
system.cpu.icache.demandMissRate::cpu.inst     0.001296                       # miss rate for demand accesses (Ratio)
system.cpu.icache.demandMissRate::total      0.001296                       # miss rate for demand accesses (Ratio)
system.cpu.icache.overallMissRate::cpu.inst     0.001296                       # miss rate for overall accesses (Ratio)
system.cpu.icache.overallMissRate::total     0.001296                       # miss rate for overall accesses (Ratio)
system.cpu.icache.demandAvgMissLatency::cpu.inst 56735.043873                       # average overall miss latency ((Cycle/Count))
system.cpu.icache.demandAvgMissLatency::total 56735.043873                       # average overall miss latency ((Cycle/Count))
system.cpu.icache.overallAvgMissLatency::cpu.inst 56735.043873                       # average overall miss latency ((Cycle/Count))
system.cpu.icache.overallAvgMissLatency::total 56735.043873                       # average overall miss latency ((Cycle/Count))
system.cpu.icache.blockedCycles::no_mshrs          498                       # number of cycles access was blocked (Cycle)
system.cpu.icache.blockedCycles::no_targets            0                       # number of cycles access was blocked (Cycle)
system.cpu.icache.blockedCauses::no_mshrs            8                       # number of times access was blocked (Count)
system.cpu.icache.blockedCauses::no_targets            0                       # number of times access was blocked (Count)
system.cpu.icache.avgBlocked::no_mshrs      62.250000                       # average number of cycles each access was blocked ((Cycle/Count))
system.cpu.icache.avgBlocked::no_targets          nan                       # average number of cycles each access was blocked ((Cycle/Count))
system.cpu.icache.demandMshrHits::cpu.inst          140                       # number of demand (read+write) MSHR hits (Count)
system.cpu.icache.demandMshrHits::total           140                       # number of demand (read+write) MSHR hits (Count)
system.cpu.icache.overallMshrHits::cpu.inst          140                       # number of overall MSHR hits (Count)
system.cpu.icache.overallMshrHits::total          140                       # number of overall MSHR hits (Count)
system.cpu.icache.demandMshrMisses::cpu.inst          521                       # number of demand (read+write) MSHR misses (Count)
system.cpu.icache.demandMshrMisses::total          521                       # number of demand (read+write) MSHR misses (Count)
system.cpu.icache.overallMshrMisses::cpu.inst          521                       # number of overall MSHR misses (Count)
system.cpu.icache.overallMshrMisses::total          521                       # number of overall MSHR misses (Count)
system.cpu.icache.demandMshrMissLatency::cpu.inst     31252744                       # number of demand (read+write) MSHR miss ticks (Tick)
system.cpu.icache.demandMshrMissLatency::total     31252744                       # number of demand (read+write) MSHR miss ticks (Tick)
system.cpu.icache.overallMshrMissLatency::cpu.inst     31252744                       # number of overall MSHR miss ticks (Tick)
system.cpu.icache.overallMshrMissLatency::total     31252744                       # number of overall MSHR miss ticks (Tick)
system.cpu.icache.demandMshrMissRate::cpu.inst     0.001021                       # mshr miss ratio for demand accesses (Ratio)
system.cpu.icache.demandMshrMissRate::total     0.001021                       # mshr miss ratio for demand accesses (Ratio)
system.cpu.icache.overallMshrMissRate::cpu.inst     0.001021                       # mshr miss ratio for overall accesses (Ratio)
system.cpu.icache.overallMshrMissRate::total     0.001021                       # mshr miss ratio for overall accesses (Ratio)
system.cpu.icache.demandAvgMshrMissLatency::cpu.inst 59986.072937                       # average overall mshr miss latency ((Cycle/Count))
system.cpu.icache.demandAvgMshrMissLatency::total 59986.072937                       # average overall mshr miss latency ((Cycle/Count))
system.cpu.icache.overallAvgMshrMissLatency::cpu.inst 59986.072937                       # average overall mshr miss latency ((Cycle/Count))
system.cpu.icache.overallAvgMshrMissLatency::total 59986.072937                       # average overall mshr miss latency ((Cycle/Count))
system.cpu.icache.replacements                     72                       # number of replacements (Count)
system.cpu.icache.ReadReq.hits::cpu.inst       509476                       # number of ReadReq hits (Count)
system.cpu.icache.ReadReq.hits::total          509476                       # number of ReadReq hits (Count)
system.cpu.icache.ReadReq.misses::cpu.inst          661                       # number of ReadReq misses (Count)
system.cpu.icache.ReadReq.misses::total           661                       # number of ReadReq misses (Count)
system.cpu.icache.ReadReq.missLatency::cpu.inst     37501864                       # number of ReadReq miss ticks (Tick)
system.cpu.icache.ReadReq.missLatency::total     37501864                       # number of ReadReq miss ticks (Tick)
system.cpu.icache.ReadReq.accesses::cpu.inst       510137                       # number of ReadReq accesses(hits+misses) (Count)
system.cpu.icache.ReadReq.accesses::total       510137                       # number of ReadReq accesses(hits+misses) (Count)
system.cpu.icache.ReadReq.missRate::cpu.inst     0.001296                       # miss rate for ReadReq accesses (Ratio)
system.cpu.icache.ReadReq.missRate::total     0.001296                       # miss rate for ReadReq accesses (Ratio)
system.cpu.icache.ReadReq.avgMissLatency::cpu.inst 56735.043873                       # average ReadReq miss latency ((Tick/Count))
system.cpu.icache.ReadReq.avgMissLatency::total 56735.043873                       # average ReadReq miss latency ((Tick/Count))
system.cpu.icache.ReadReq.mshrHits::cpu.inst          140                       # number of ReadReq MSHR hits (Count)
system.cpu.icache.ReadReq.mshrHits::total          140                       # number of ReadReq MSHR hits (Count)
system.cpu.icache.ReadReq.mshrMisses::cpu.inst          521                       # number of ReadReq MSHR misses (Count)
system.cpu.icache.ReadReq.mshrMisses::total          521                       # number of ReadReq MSHR misses (Count)
system.cpu.icache.ReadReq.mshrMissLatency::cpu.inst     31252744                       # number of ReadReq MSHR miss ticks (Tick)
system.cpu.icache.ReadReq.mshrMissLatency::total     31252744                       # number of ReadReq MSHR miss ticks (Tick)
system.cpu.icache.ReadReq.mshrMissRate::cpu.inst     0.001021                       # mshr miss rate for ReadReq accesses (Ratio)
system.cpu.icache.ReadReq.mshrMissRate::total     0.001021                       # mshr miss rate for ReadReq accesses (Ratio)
system.cpu.icache.ReadReq.avgMshrMissLatency::cpu.inst 59986.072937                       # average ReadReq mshr miss latency ((Tick/Count))
system.cpu.icache.ReadReq.avgMshrMissLatency::total 59986.072937                       # average ReadReq mshr miss latency ((Tick/Count))
system.cpu.icache.power_state.pwrStateResidencyTicks::UNDEFINED   9299440680                       # Cumulative time (in ticks) in various power states (Tick)
system.cpu.icache.tags.tagsInUse           433.156627                       # Average ticks per tags in use ((Tick/Count))
system.cpu.icache.tags.totalRefs               509996                       # Total number of references to valid blocks. (Count)
system.cpu.icache.tags.sampledRefs                520                       # Sample count of references to valid blocks. (Count)
system.cpu.icache.tags.avgRefs             980.761538                       # Average number of references to valid blocks. ((Count/Count))
system.cpu.icache.tags.warmupTick               73696                       # The tick when the warmup percentage was hit. (Tick)
system.cpu.icache.tags.occupancies::cpu.inst   433.156627                       # Average occupied blocks per tick, per requestor ((Count/Tick))
system.cpu.icache.tags.avgOccs::cpu.inst     0.846009                       # Average percentage of cache occupancy ((Ratio/Tick))
system.cpu.icache.tags.avgOccs::total        0.846009                       # Average percentage of cache occupancy ((Ratio/Tick))
system.cpu.icache.tags.occupanciesTaskId::1024          448                       # Occupied blocks per task id (Count)
system.cpu.icache.tags.ageTaskId_1024::0           45                       # Occupied blocks per task id, per block age (Count)
system.cpu.icache.tags.ageTaskId_1024::3          403                       # Occupied blocks per task id, per block age (Count)
system.cpu.icache.tags.ratioOccsTaskId::1024     0.875000                       # Ratio of occupied blocks and all blocks, per task id (Ratio)
system.cpu.icache.tags.tagAccesses            2041068                       # Number of tag accesses (Count)
system.cpu.icache.tags.dataAccesses           2041068                       # Number of data accesses (Count)
system.cpu.icache.tags.power_state.pwrStateResidencyTicks::UNDEFINED   9299440680                       # Cumulative time (in ticks) in various power states (Tick)
system.cpu.interrupts.clk_domain.clock           6016                       # Clock period in ticks (Tick)
system.cpu.lsq0.forwLoads                        2248                       # Number of loads that had data forwarded from stores (Count)
system.cpu.lsq0.squashedLoads                   19249                       # Number of loads squashed (Count)
system.cpu.lsq0.ignoredResponses                    2                       # Number of memory responses ignored because the instruction is squashed (Count)
system.cpu.lsq0.memOrderViolation                  29                       # Number of memory ordering violations (Count)
system.cpu.lsq0.squashedStores                   9453                       # Number of stores squashed (Count)
system.cpu.lsq0.rescheduledLoads                    0                       # Number of loads that were rescheduled (Count)
system.cpu.lsq0.blockedByCache                    446                       # Number of times an access to memory failed due to the cache being blocked (Count)
system.cpu.lsq0.loadToUse::samples             545743                       # Distribution of cycle latency between the first time a load is issued and its completion (Unspecified)
system.cpu.lsq0.loadToUse::mean             44.505384                       # Distribution of cycle latency between the first time a load is issued and its completion (Unspecified)
system.cpu.lsq0.loadToUse::stdev            85.601682                       # Distribution of cycle latency between the first time a load is issued and its completion (Unspecified)
system.cpu.lsq0.loadToUse::0-9                 335085     61.40%     61.40% # Distribution of cycle latency between the first time a load is issued and its completion (Unspecified)
system.cpu.lsq0.loadToUse::10-19               111145     20.37%     81.77% # Distribution of cycle latency between the first time a load is issued and its completion (Unspecified)
system.cpu.lsq0.loadToUse::20-29                  690      0.13%     81.89% # Distribution of cycle latency between the first time a load is issued and its completion (Unspecified)
system.cpu.lsq0.loadToUse::30-39                  106      0.02%     81.91% # Distribution of cycle latency between the first time a load is issued and its completion (Unspecified)
system.cpu.lsq0.loadToUse::40-49                   22      0.00%     81.92% # Distribution of cycle latency between the first time a load is issued and its completion (Unspecified)
system.cpu.lsq0.loadToUse::50-59                   11      0.00%     81.92% # Distribution of cycle latency between the first time a load is issued and its completion (Unspecified)
system.cpu.lsq0.loadToUse::60-69                 1302      0.24%     82.16% # Distribution of cycle latency between the first time a load is issued and its completion (Unspecified)
system.cpu.lsq0.loadToUse::70-79                   18      0.00%     82.16% # Distribution of cycle latency between the first time a load is issued and its completion (Unspecified)
system.cpu.lsq0.loadToUse::80-89                   24      0.00%     82.16% # Distribution of cycle latency between the first time a load is issued and its completion (Unspecified)
system.cpu.lsq0.loadToUse::90-99                   19      0.00%     82.17% # Distribution of cycle latency between the first time a load is issued and its completion (Unspecified)
system.cpu.lsq0.loadToUse::100-109                 12      0.00%     82.17% # Distribution of cycle latency between the first time a load is issued and its completion (Unspecified)
system.cpu.lsq0.loadToUse::110-119                 20      0.00%     82.17% # Distribution of cycle latency between the first time a load is issued and its completion (Unspecified)
system.cpu.lsq0.loadToUse::120-129                 23      0.00%     82.18% # Distribution of cycle latency between the first time a load is issued and its completion (Unspecified)
system.cpu.lsq0.loadToUse::130-139                 10      0.00%     82.18% # Distribution of cycle latency between the first time a load is issued and its completion (Unspecified)
system.cpu.lsq0.loadToUse::140-149              15486      2.84%     85.02% # Distribution of cycle latency between the first time a load is issued and its completion (Unspecified)
system.cpu.lsq0.loadToUse::150-159                127      0.02%     85.04% # Distribution of cycle latency between the first time a load is issued and its completion (Unspecified)
system.cpu.lsq0.loadToUse::160-169                 81      0.01%     85.05% # Distribution of cycle latency between the first time a load is issued and its completion (Unspecified)
system.cpu.lsq0.loadToUse::170-179              28686      5.26%     90.31% # Distribution of cycle latency between the first time a load is issued and its completion (Unspecified)
system.cpu.lsq0.loadToUse::180-189                242      0.04%     90.36% # Distribution of cycle latency between the first time a load is issued and its completion (Unspecified)
system.cpu.lsq0.loadToUse::190-199                220      0.04%     90.40% # Distribution of cycle latency between the first time a load is issued and its completion (Unspecified)
system.cpu.lsq0.loadToUse::200-209                196      0.04%     90.43% # Distribution of cycle latency between the first time a load is issued and its completion (Unspecified)
system.cpu.lsq0.loadToUse::210-219              43479      7.97%     98.40% # Distribution of cycle latency between the first time a load is issued and its completion (Unspecified)
[...]
system.mem_ctrl.dram.bytesWritten::total      6570880                       # Number of bytes written to this memory (Byte)
system.mem_ctrl.dram.numReads::cpu.inst           520                       # Number of read requests responded to by this memory (Count)
system.mem_ctrl.dram.numReads::cpu.data        106827                       # Number of read requests responded to by this memory (Count)
system.mem_ctrl.dram.numReads::total           107347                       # Number of read requests responded to by this memory (Count)
system.mem_ctrl.dram.numWrites::writebacks       102670                       # Number of write requests responded to by this memory (Count)
system.mem_ctrl.dram.numWrites::total          102670                       # Number of write requests responded to by this memory (Count)
system.mem_ctrl.dram.bwRead::cpu.inst         3578710                       # Total read bandwidth from this memory ((Byte/Second))
system.mem_ctrl.dram.bwRead::cpu.data       735197765                       # Total read bandwidth from this memory ((Byte/Second))
system.mem_ctrl.dram.bwRead::total          738776474                       # Total read bandwidth from this memory ((Byte/Second))
system.mem_ctrl.dram.bwInstRead::cpu.inst      3578710                       # Instruction read bandwidth from this memory ((Byte/Second))
system.mem_ctrl.dram.bwInstRead::total        3578710                       # Instruction read bandwidth from this memory ((Byte/Second))
system.mem_ctrl.dram.bwWrite::writebacks    706588732                       # Write bandwidth from this memory ((Byte/Second))
system.mem_ctrl.dram.bwWrite::total         706588732                       # Write bandwidth from this memory ((Byte/Second))
system.mem_ctrl.dram.bwTotal::writebacks    706588732                       # Total bandwidth to/from this memory ((Byte/Second))
system.mem_ctrl.dram.bwTotal::cpu.inst        3578710                       # Total bandwidth to/from this memory ((Byte/Second))
system.mem_ctrl.dram.bwTotal::cpu.data      735197765                       # Total bandwidth to/from this memory ((Byte/Second))
system.mem_ctrl.dram.bwTotal::total        1445365207                       # Total bandwidth to/from this memory ((Byte/Second))
system.mem_ctrl.dram.readBursts                106058                       # Number of DRAM read bursts (Count)
system.mem_ctrl.dram.writeBursts               102639                       # Number of DRAM write bursts (Count)
system.mem_ctrl.dram.perBankRdBursts::0          7087                       # Per bank write bursts (Count)
system.mem_ctrl.dram.perBankRdBursts::1          6493                       # Per bank write bursts (Count)
system.mem_ctrl.dram.perBankRdBursts::2          6622                       # Per bank write bursts (Count)
system.mem_ctrl.dram.perBankRdBursts::3          6394                       # Per bank write bursts (Count)
system.mem_ctrl.dram.perBankRdBursts::4          7046                       # Per bank write bursts (Count)
system.mem_ctrl.dram.perBankRdBursts::5          6567                       # Per bank write bursts (Count)
system.mem_ctrl.dram.perBankRdBursts::6          6450                       # Per bank write bursts (Count)
system.mem_ctrl.dram.perBankRdBursts::7          6153                       # Per bank write bursts (Count)
system.mem_ctrl.dram.perBankRdBursts::8          7069                       # Per bank write bursts (Count)
system.mem_ctrl.dram.perBankRdBursts::9          6597                       # Per bank write bursts (Count)
system.mem_ctrl.dram.perBankRdBursts::10         6576                       # Per bank write bursts (Count)
system.mem_ctrl.dram.perBankRdBursts::11         6351                       # Per bank write bursts (Count)
system.mem_ctrl.dram.perBankRdBursts::12         6980                       # Per bank write bursts (Count)
system.mem_ctrl.dram.perBankRdBursts::13         6683                       # Per bank write bursts (Count)
system.mem_ctrl.dram.perBankRdBursts::14         6758                       # Per bank write bursts (Count)
system.mem_ctrl.dram.perBankRdBursts::15         6232                       # Per bank write bursts (Count)
system.mem_ctrl.dram.perBankWrBursts::0          6955                       # Per bank write bursts (Count)
system.mem_ctrl.dram.perBankWrBursts::1          6265                       # Per bank write bursts (Count)
system.mem_ctrl.dram.perBankWrBursts::2          6412                       # Per bank write bursts (Count)
system.mem_ctrl.dram.perBankWrBursts::3          6082                       # Per bank write bursts (Count)
system.mem_ctrl.dram.perBankWrBursts::4          6834                       # Per bank write bursts (Count)
system.mem_ctrl.dram.perBankWrBursts::5          6335                       # Per bank write bursts (Count)
system.mem_ctrl.dram.perBankWrBursts::6          6275                       # Per bank write bursts (Count)
system.mem_ctrl.dram.perBankWrBursts::7          5962                       # Per bank write bursts (Count)
system.mem_ctrl.dram.perBankWrBursts::8          6900                       # Per bank write bursts (Count)
system.mem_ctrl.dram.perBankWrBursts::9          6310                       # Per bank write bursts (Count)
system.mem_ctrl.dram.perBankWrBursts::10         6378                       # Per bank write bursts (Count)
system.mem_ctrl.dram.perBankWrBursts::11         6127                       # Per bank write bursts (Count)
system.mem_ctrl.dram.perBankWrBursts::12         6843                       # Per bank write bursts (Count)
system.mem_ctrl.dram.perBankWrBursts::13         6485                       # Per bank write bursts (Count)
system.mem_ctrl.dram.perBankWrBursts::14         6500                       # Per bank write bursts (Count)
system.mem_ctrl.dram.perBankWrBursts::15         5976                       # Per bank write bursts (Count)
system.mem_ctrl.dram.totQLat               2581483720                       # Total ticks spent queuing (Tick)
system.mem_ctrl.dram.totBusLat              530290000                       # Total ticks spent in databus transfers (Tick)
system.mem_ctrl.dram.totMemAccLat          4570071220                       # Total ticks spent from burst creation until serviced by the DRAM (Tick)
system.mem_ctrl.dram.avgQLat                 24340.30                       # Average queueing delay per DRAM burst ((Tick/Count))
system.mem_ctrl.dram.avgBusLat                5000.00                       # Average bus latency per DRAM burst ((Tick/Count))
system.mem_ctrl.dram.avgMemAccLat            43090.30                       # Average memory access latency per DRAM burst ((Tick/Count))
system.mem_ctrl.dram.readRowHits                25141                       # Number of row buffer hits during reads (Count)
system.mem_ctrl.dram.writeRowHits               55469                       # Number of row buffer hits during writes (Count)
system.mem_ctrl.dram.readRowHitRate             23.70                       # Row buffer hit rate for reads (Ratio)
system.mem_ctrl.dram.writeRowHitRate            54.04                       # Row buffer hit rate for writes (Ratio)
system.mem_ctrl.dram.bytesPerActivate::samples       128073                       # Bytes accessed per row activation (Byte)
system.mem_ctrl.dram.bytesPerActivate::mean   104.278529                       # Bytes accessed per row activation (Byte)
system.mem_ctrl.dram.bytesPerActivate::gmean    89.696270                       # Bytes accessed per row activation (Byte)
system.mem_ctrl.dram.bytesPerActivate::stdev    88.457682                       # Bytes accessed per row activation (Byte)
system.mem_ctrl.dram.bytesPerActivate::0-127        79123     61.78%     61.78% # Bytes accessed per row activation (Byte)
system.mem_ctrl.dram.bytesPerActivate::128-255        44031     34.38%     96.16% # Bytes accessed per row activation (Byte)
system.mem_ctrl.dram.bytesPerActivate::256-383         3816      2.98%     99.14% # Bytes accessed per row activation (Byte)
system.mem_ctrl.dram.bytesPerActivate::384-511          259      0.20%     99.34% # Bytes accessed per row activation (Byte)
system.mem_ctrl.dram.bytesPerActivate::512-639           49      0.04%     99.38% # Bytes accessed per row activation (Byte)
system.mem_ctrl.dram.bytesPerActivate::640-767           26      0.02%     99.40% # Bytes accessed per row activation (Byte)
system.mem_ctrl.dram.bytesPerActivate::768-895           54      0.04%     99.44% # Bytes accessed per row activation (Byte)
system.mem_ctrl.dram.bytesPerActivate::896-1023           54      0.04%     99.48% # Bytes accessed per row activation (Byte)
system.mem_ctrl.dram.bytesPerActivate::1024-1151          661      0.52%    100.00% # Bytes accessed per row activation (Byte)
system.mem_ctrl.dram.bytesPerActivate::total       128073                       # Bytes accessed per row activation (Byte)
system.mem_ctrl.dram.bytesRead                6787712                       # Total number of bytes read from DRAM (Byte)
system.mem_ctrl.dram.bytesWritten             6568896                       # Total number of bytes written to DRAM (Byte)
system.mem_ctrl.dram.avgRdBW               729.905403                       # Average DRAM read bandwidth in MiBytes/s ((Byte/Second))
system.mem_ctrl.dram.avgWrBW               706.375386                       # Average DRAM write bandwidth in MiBytes/s ((Byte/Second))
system.mem_ctrl.dram.peakBW                  12800.00                       # Theoretical peak bandwidth in MiByte/s ((Byte/Second))
system.mem_ctrl.dram.busUtil                    11.22                       # Data bus utilization in percentage (Ratio)
system.mem_ctrl.dram.busUtilRead                 5.70                       # Data bus utilization in percentage for reads (Ratio)
system.mem_ctrl.dram.busUtilWrite                5.52                       # Data bus utilization in percentage for writes (Ratio)
system.mem_ctrl.dram.pageHitRate                38.63                       # Row buffer hit rate, read and write combined (Ratio)
system.mem_ctrl.dram.power_state.pwrStateResidencyTicks::UNDEFINED   9299440680                       # Cumulative time (in ticks) in various power states (Tick)
system.mem_ctrl.dram.rank0.actEnergy        455517720                       # Energy for activate commands per rank (pJ) (Joule)
system.mem_ctrl.dram.rank0.preEnergy        242083050                       # Energy for precharge commands per rank (pJ) (Joule)
system.mem_ctrl.dram.rank0.readEnergy       377070540                       # Energy for read commands per rank (pJ) (Joule)
system.mem_ctrl.dram.rank0.writeEnergy      266846400                       # Energy for write commands per rank (pJ) (Joule)
system.mem_ctrl.dram.rank0.refreshEnergy 733880160.000000                       # Energy for refresh commands per rank (pJ) (Joule)
system.mem_ctrl.dram.rank0.actBackEnergy   3981617010                       # Energy for active background per rank (pJ) (Joule)
system.mem_ctrl.dram.rank0.preBackEnergy    218044800                       # Energy for precharge background per rank (pJ) (Joule)
system.mem_ctrl.dram.rank0.actPowerDownEnergy            0                       # Energy for active power-down per rank (pJ) (Joule)
system.mem_ctrl.dram.rank0.prePowerDownEnergy            0                       # Energy for precharge power-down per rank (pJ) (Joule)
system.mem_ctrl.dram.rank0.selfRefreshEnergy            0                       # Energy for self refresh per rank (pJ) (Joule)
system.mem_ctrl.dram.rank0.totalEnergy     6275059680                       # Total energy per rank (pJ) (Joule)
system.mem_ctrl.dram.rank0.averagePower    674.778182                       # Core power per rank (mW) (Watt)
system.mem_ctrl.dram.rank0.totalIdleTime            0                       # Total Idle time Per DRAM Rank (Tick)
system.mem_ctrl.dram.rank0.pwrStateTime::IDLE    530658770                       # Time in different power states (Tick)
system.mem_ctrl.dram.rank0.pwrStateTime::REF    310440000                       # Time in different power states (Tick)
system.mem_ctrl.dram.rank0.pwrStateTime::SREF            0                       # Time in different power states (Tick)
system.mem_ctrl.dram.rank0.pwrStateTime::PRE_PDN            0                       # Time in different power states (Tick)
system.mem_ctrl.dram.rank0.pwrStateTime::ACT   8458341910                       # Time in different power states (Tick)
system.mem_ctrl.dram.rank0.pwrStateTime::ACT_PDN            0                       # Time in different power states (Tick)
system.mem_ctrl.dram.rank1.actEnergy        459023460                       # Energy for activate commands per rank (pJ) (Joule)
system.mem_ctrl.dram.rank1.preEnergy        243953985                       # Energy for precharge commands per rank (pJ) (Joule)
system.mem_ctrl.dram.rank1.readEnergy       380176440                       # Energy for read commands per rank (pJ) (Joule)
system.mem_ctrl.dram.rank1.writeEnergy      268929180                       # Energy for write commands per rank (pJ) (Joule)
system.mem_ctrl.dram.rank1.refreshEnergy 733880160.000000                       # Energy for refresh commands per rank (pJ) (Joule)
system.mem_ctrl.dram.rank1.actBackEnergy   3952573800                       # Energy for active background per rank (pJ) (Joule)
system.mem_ctrl.dram.rank1.preBackEnergy    242502240                       # Energy for precharge background per rank (pJ) (Joule)
system.mem_ctrl.dram.rank1.actPowerDownEnergy            0                       # Energy for active power-down per rank (pJ) (Joule)
system.mem_ctrl.dram.rank1.prePowerDownEnergy            0                       # Energy for precharge power-down per rank (pJ) (Joule)
system.mem_ctrl.dram.rank1.selfRefreshEnergy            0                       # Energy for self refresh per rank (pJ) (Joule)
system.mem_ctrl.dram.rank1.totalEnergy     6281039265                       # Total energy per rank (pJ) (Joule)
system.mem_ctrl.dram.rank1.averagePower    675.421187                       # Core power per rank (mW) (Watt)
system.mem_ctrl.dram.rank1.totalIdleTime            0                       # Total Idle time Per DRAM Rank (Tick)
system.mem_ctrl.dram.rank1.pwrStateTime::IDLE    594229916                       # Time in different power states (Tick)
system.mem_ctrl.dram.rank1.pwrStateTime::REF    310440000                       # Time in different power states (Tick)
system.mem_ctrl.dram.rank1.pwrStateTime::SREF            0                       # Time in different power states (Tick)
system.mem_ctrl.dram.rank1.pwrStateTime::PRE_PDN            0                       # Time in different power states (Tick)
system.mem_ctrl.dram.rank1.pwrStateTime::ACT   8394770764                       # Time in different power states (Tick)
system.mem_ctrl.dram.rank1.pwrStateTime::ACT_PDN            0                       # Time in different power states (Tick)
system.mem_ctrl.power_state.pwrStateResidencyTicks::UNDEFINED   9299440680                       # Cumulative time (in ticks) in various power states (Tick)
system.membus.transDist::ReadResp               99006                       # Transaction distribution (Count)
system.membus.transDist::WritebackDirty        102670                       # Transaction distribution (Count)
system.membus.transDist::CleanEvict               162                       # Transaction distribution (Count)
system.membus.transDist::ReadExReq               8341                       # Transaction distribution (Count)
system.membus.transDist::ReadExResp              8341                       # Transaction distribution (Count)
system.membus.transDist::ReadSharedReq          99007                       # Transaction distribution (Count)
system.membus.pktCount_system.l2cache.mem_side_port::system.mem_ctrl.port       317527                       # Packet count per connected requestor and responder (Count)
system.membus.pktCount_system.l2cache.mem_side_port::total       317527                       # Packet count per connected requestor and responder (Count)
system.membus.pktCount::total                  317527                       # Packet count per connected requestor and responder (Count)
system.membus.pktSize_system.l2cache.mem_side_port::system.mem_ctrl.port     13441088                       # Cumulative packet size per connected requestor and responder (Byte)
system.membus.pktSize_system.l2cache.mem_side_port::total     13441088                       # Cumulative packet size per connected requestor and responder (Byte)
system.membus.pktSize::total                 13441088                       # Cumulative packet size per connected requestor and responder (Byte)
system.membus.snoops                                0                       # Total snoops (Count)
system.membus.snoopTraffic                          0                       # Total snoop traffic (Byte)
system.membus.snoopFanout::samples             107348                       # Request fanout histogram (Count)
system.membus.snoopFanout::mean                     0                       # Request fanout histogram (Count)
system.membus.snoopFanout::stdev                    0                       # Request fanout histogram (Count)
system.membus.snoopFanout::underflows               0      0.00%      0.00% # Request fanout histogram (Count)
system.membus.snoopFanout::0                   107348    100.00%    100.00% # Request fanout histogram (Count)
system.membus.snoopFanout::1                        0      0.00%    100.00% # Request fanout histogram (Count)
system.membus.snoopFanout::overflows                0      0.00%    100.00% # Request fanout histogram (Count)
system.membus.snoopFanout::min_value                0                       # Request fanout histogram (Count)
system.membus.snoopFanout::max_value                0                       # Request fanout histogram (Count)
system.membus.snoopFanout::total               107348                       # Request fanout histogram (Count)
system.membus.power_state.pwrStateResidencyTicks::UNDEFINED   9299440680                       # Cumulative time (in ticks) in various power states (Tick)
system.membus.reqLayer2.occupancy           233443360                       # Layer occupancy (ticks) (Tick)
system.membus.reqLayer2.utilization               0.0                       # Layer utilization (Ratio)
system.membus.respLayer0.occupancy          229419958                       # Layer occupancy (ticks) (Tick)
system.membus.respLayer0.utilization              0.0                       # Layer utilization (Ratio)
system.membus.snoop_filter.totRequests         210180                       # Total number of requests made to the snoop filter. (Count)
system.membus.snoop_filter.hitSingleRequests       102832                       # Number of requests hitting in the snoop filter with a single holder of the requested data. (Count)
system.membus.snoop_filter.hitMultiRequests            0                       # Number of requests hitting in the snoop filter with multiple (>1) holders of the requested data. (Count)
system.membus.snoop_filter.totSnoops                0                       # Total number of snoops made to the snoop filter. (Count)
system.membus.snoop_filter.hitSingleSnoops            0                       # Number of snoops hitting in the snoop filter with a single holder of the requested data. (Count)
system.membus.snoop_filter.hitMultiSnoops            0                       # Number of snoops hitting in the snoop filter with multiple (>1) holders of the requested data. (Count)
system.workload.inst.arm                            0                       # number of arm instructions executed (Count)
system.workload.inst.quiesce                        0                       # number of quiesce instructions executed (Count)

---------- End Simulation Statistics   ----------
