
---------- Begin Simulation Statistics ----------
simSeconds                                   0.000466                       # Number of seconds simulated (Second)
simTicks                                    466300000                       # Number of ticks simulated (Tick)
finalTick                                   466300000                       # Number of ticks from beginning of simulation (restored from checkpoints and never reset) (Tick)
simFreq                                  1000000000000                       # The number of ticks per simulated second ((Tick/Second))
hostSeconds                                      2.90                       # Real time elapsed on the host (Second)
hostTickRate                                160847174                       # The number of ticks simulated per host second (ticks/s) ((Tick/Second))
hostMemory                                     633464                       # Number of bytes of host memory used (Byte)
simInsts                                       566482                       # Number of instructions simulated (Count)
simOps                                        1004118                       # Number of ops (including micro ops) simulated (Count)
hostInstRate                                   195398                       # Simulator instruction rate (inst/s) ((Count/Second))
hostOpRate                                     346352                       # Simulator op (including micro ops) rate (op/s) ((Count/Second))
system.clk_domain.clock                          1000                       # Clock period in ticks (Tick)
system.clk_domain.voltage_domain.voltage            1                       # Voltage in Volts (Volt)
system.cpu.numCycles                           466301                       # Number of cpu cycles simulated (Cycle)
system.cpu.numWorkItemsStarted                      0                       # Number of work items this cpu started (Count)
system.cpu.numWorkItemsCompleted                    0                       # Number of work items this cpu completed (Count)
system.cpu.instsAdded                         1101440                       # Number of instructions added to the IQ (excludes non-spec) (Count)
system.cpu.nonSpecInstsAdded                        8                       # Number of non-speculative instructions added to the IQ (Count)
system.cpu.instsIssued                        1072888                       # Number of instructions issued (Count)
system.cpu.squashedInstsIssued                    153                       # Number of squashed instructions issued (Count)
system.cpu.squashedInstsExamined                97316                       # Number of squashed instructions iterated over during squash; mainly for profiling (Count)
system.cpu.squashedOperandsExamined            124019                       # Number of squashed operands that are examined and possibly removed from graph (Count)
system.cpu.squashedNonSpecRemoved                   8                       # Number of squashed non-spec instructions that were removed (Count)
system.cpu.numIssuedDist::samples              443495                       # Number of insts issued each cycle (Count)
system.cpu.numIssuedDist::mean               2.419166                       # Number of insts issued each cycle (Count)
system.cpu.numIssuedDist::stdev              1.589322                       # Number of insts issued each cycle (Count)
system.cpu.numIssuedDist::underflows                0      0.00%      0.00% # Number of insts issued each cycle (Count)
system.cpu.numIssuedDist::0                     71053     16.02%     16.02% # Number of insts issued each cycle (Count)
system.cpu.numIssuedDist::1                     67609     15.24%     31.27% # Number of insts issued each cycle (Count)
system.cpu.numIssuedDist::2                     74554     16.81%     48.08% # Number of insts issued each cycle (Count)
system.cpu.numIssuedDist::3                    105506     23.79%     71.87% # Number of insts issued each cycle (Count)
system.cpu.numIssuedDist::4                     99407     22.41%     94.28% # Number of insts issued each cycle (Count)
system.cpu.numIssuedDist::5                     13661      3.08%     97.36% # Number of insts issued each cycle (Count)
system.cpu.numIssuedDist::6                      9000      2.03%     99.39% # Number of insts issued each cycle (Count)
system.cpu.numIssuedDist::7                      1920      0.43%     99.82% # Number of insts issued each cycle (Count)
system.cpu.numIssuedDist::8                       785      0.18%    100.00% # Number of insts issued each cycle (Count)
system.cpu.numIssuedDist::overflows                 0      0.00%    100.00% # Number of insts issued each cycle (Count)
system.cpu.numIssuedDist::min_value                 0                       # Number of insts issued each cycle (Count)
system.cpu.numIssuedDist::max_value                 8                       # Number of insts issued each cycle (Count)
system.cpu.numIssuedDist::total                443495                       # Number of insts issued each cycle (Count)
system.cpu.statFuBusy::No_OpClass                   0      0.00%      0.00% # attempts to use FU when none available (Count)
system.cpu.statFuBusy::IntAlu                    4205     97.72%     97.72% # attempts to use FU when none available (Count)
system.cpu.statFuBusy::IntMult                      0      0.00%     97.72% # attempts to use FU when none available (Count)
system.cpu.statFuBusy::IntDiv                       0      0.00%     97.72% # attempts to use FU when none available (Count)
system.cpu.statFuBusy::FloatAdd                     0      0.00%     97.72% # attempts to use FU when none available (Count)
system.cpu.statFuBusy::FloatCmp                     0      0.00%     97.72% # attempts to use FU when none available (Count)
system.cpu.statFuBusy::FloatCvt                     0      0.00%     97.72% # attempts to use FU when none available (Count)
system.cpu.statFuBusy::FloatMult                    0      0.00%     97.72% # attempts to use FU when none available (Count)
system.cpu.statFuBusy::FloatMultAcc                 0      0.00%     97.72% # attempts to use FU when none available (Count)
system.cpu.statFuBusy::FloatDiv                     0      0.00%     97.72% # attempts to use FU when none available (Count)
system.cpu.statFuBusy::FloatMisc                    0      0.00%     97.72% # attempts to use FU when none available (Count)
system.cpu.statFuBusy::FloatSqrt                    0      0.00%     97.72% # attempts to use FU when none available (Count)
system.cpu.statFuBusy::SimdAdd                      1      0.02%     97.75% # attempts to use FU when none available (Count)
system.cpu.statFuBusy::SimdAddAcc                   0      0.00%     97.75% # attempts to use FU when none available (Count)
system.cpu.statFuBusy::SimdAlu                     10      0.23%     97.98% # attempts to use FU when none available (Count)
system.cpu.statFuBusy::SimdCmp                      0      0.00%     97.98% # attempts to use FU when none available (Count)
system.cpu.statFuBusy::SimdCvt                      1      0.02%     98.00% # attempts to use FU when none available (Count)
system.cpu.statFuBusy::SimdMisc                     2      0.05%     98.05% # attempts to use FU when none available (Count)
system.cpu.statFuBusy::SimdMult                     0      0.00%     98.05% # attempts to use FU when none available (Count)
system.cpu.statFuBusy::SimdMultAcc                  0      0.00%     98.05% # attempts to use FU when none available (Count)
system.cpu.statFuBusy::SimdShift                    0      0.00%     98.05% # attempts to use FU when none available (Count)
system.cpu.statFuBusy::SimdShiftAcc                 0      0.00%     98.05% # attempts to use FU when none available (Count)
system.cpu.statFuBusy::SimdDiv                      0      0.00%     98.05% # attempts to use FU when none available (Count)
system.cpu.statFuBusy::SimdSqrt                     0      0.00%     98.05% # attempts to use FU when none available (Count)
system.cpu.statFuBusy::SimdFloatAdd                 0      0.00%     98.05% # attempts to use FU when none available (Count)
system.cpu.statFuBusy::SimdFloatAlu                 0      0.00%     98.05% # attempts to use FU when none available (Count)
system.cpu.statFuBusy::SimdFloatCmp                 0      0.00%     98.05% # attempts to use FU when none available (Count)
system.cpu.statFuBusy::SimdFloatCvt                 0      0.00%     98.05% # attempts to use FU when none available (Count)
system.cpu.statFuBusy::SimdFloatDiv                 0      0.00%     98.05% # attempts to use FU when none available (Count)
system.cpu.statFuBusy::SimdFloatMisc                0      0.00%     98.05% # attempts to use FU when none available (Count)
system.cpu.statFuBusy::SimdFloatMult                0      0.00%     98.05% # attempts to use FU when none available (Count)
system.cpu.statFuBusy::SimdFloatMultAcc             0      0.00%     98.05% # attempts to use FU when none available (Count)
system.cpu.statFuBusy::SimdFloatSqrt                0      0.00%     98.05% # attempts to use FU when none available (Count)
system.cpu.statFuBusy::SimdReduceAdd                0      0.00%     98.05% # attempts to use FU when none available (Count)
system.cpu.statFuBusy::SimdReduceAlu                0      0.00%     98.05% # attempts to use FU when none available (Count)
system.cpu.statFuBusy::SimdReduceCmp                0      0.00%     98.05% # attempts to use FU when none available (Count)
system.cpu.statFuBusy::SimdFloatReduceAdd            0      0.00%     98.05% # attempts to use FU when none available (Count)
system.cpu.statFuBusy::SimdFloatReduceCmp            0      0.00%     98.05% # attempts to use FU when none available (Count)
system.cpu.statFuBusy::SimdAes                      0      0.00%     98.05% # attempts to use FU when none available (Count)
system.cpu.statFuBusy::SimdAesMix                   0      0.00%     98.05% # attempts to use FU when none available (Count)
system.cpu.statFuBusy::SimdSha1Hash                 0      0.00%     98.05% # attempts to use FU when none available (Count)
system.cpu.statFuBusy::SimdSha1Hash2                0      0.00%     98.05% # attempts to use FU when none available (Count)
system.cpu.statFuBusy::SimdSha256Hash               0      0.00%     98.05% # attempts to use FU when none available (Count)
system.cpu.statFuBusy::SimdSha256Hash2              0      0.00%     98.05% # attempts to use FU when none available (Count)
system.cpu.statFuBusy::SimdShaSigma2                0      0.00%     98.05% # attempts to use FU when none available (Count)
system.cpu.statFuBusy::SimdShaSigma3                0      0.00%     98.05% # attempts to use FU when none available (Count)
system.cpu.statFuBusy::SimdPredAlu                  0      0.00%     98.05% # attempts to use FU when none available (Count)
system.cpu.statFuBusy::MemRead                     40      0.93%     98.98% # attempts to use FU when none available (Count)
system.cpu.statFuBusy::MemWrite                    24      0.56%     99.54% # attempts to use FU when none available (Count)
system.cpu.statFuBusy::FloatMemRead                 9      0.21%     99.74% # attempts to use FU when none available (Count)
system.cpu.statFuBusy::FloatMemWrite               11      0.26%    100.00% # attempts to use FU when none available (Count)
system.cpu.statFuBusy::IprAccess                    0      0.00%    100.00% # attempts to use FU when none available (Count)
system.cpu.statFuBusy::InstPrefetch                 0      0.00%    100.00% # attempts to use FU when none available (Count)
system.cpu.statIssuedInstType_0::No_OpClass          944      0.09%      0.09% # Number of instructions issued per FU type, per thread (Count)
system.cpu.statIssuedInstType_0::IntAlu       1031598     96.15%     96.24% # Number of instructions issued per FU type, per thread (Count)
system.cpu.statIssuedInstType_0::IntMult          527      0.05%     96.29% # Number of instructions issued per FU type, per thread (Count)
system.cpu.statIssuedInstType_0::IntDiv            21      0.00%     96.29% # Number of instructions issued per FU type, per thread (Count)
system.cpu.statIssuedInstType_0::FloatAdd          144      0.01%     96.30% # Number of instructions issued per FU type, per thread (Count)
system.cpu.statIssuedInstType_0::FloatCmp            0      0.00%     96.30% # Number of instructions issued per FU type, per thread (Count)
system.cpu.statIssuedInstType_0::FloatCvt            0      0.00%     96.30% # Number of instructions issued per FU type, per thread (Count)
system.cpu.statIssuedInstType_0::FloatMult            0      0.00%     96.30% # Number of instructions issued per FU type, per thread (Count)
system.cpu.statIssuedInstType_0::FloatMultAcc            0      0.00%     96.30% # Number of instructions issued per FU type, per thread (Count)
system.cpu.statIssuedInstType_0::FloatDiv            0      0.00%     96.30% # Number of instructions issued per FU type, per thread (Count)
system.cpu.statIssuedInstType_0::FloatMisc            0      0.00%     96.30% # Number of instructions issued per FU type, per thread (Count)
system.cpu.statIssuedInstType_0::FloatSqrt            0      0.00%     96.30% # Number of instructions issued per FU type, per thread (Count)
system.cpu.statIssuedInstType_0::SimdAdd         1061      0.10%     96.40% # Number of instructions issued per FU type, per thread (Count)
system.cpu.statIssuedInstType_0::SimdAddAcc            0      0.00%     96.40% # Number of instructions issued per FU type, per thread (Count)
system.cpu.statIssuedInstType_0::SimdAlu          152      0.01%     96.42% # Number of instructions issued per FU type, per thread (Count)
system.cpu.statIssuedInstType_0::SimdCmp            0      0.00%     96.42% # Number of instructions issued per FU type, per thread (Count)
system.cpu.statIssuedInstType_0::SimdCvt           52      0.00%     96.42% # Number of instructions issued per FU type, per thread (Count)
system.cpu.statIssuedInstType_0::SimdMisc          242      0.02%     96.44% # Number of instructions issued per FU type, per thread (Count)
system.cpu.statIssuedInstType_0::SimdMult            0      0.00%     96.44% # Number of instructions issued per FU type, per thread (Count)
system.cpu.statIssuedInstType_0::SimdMultAcc            0      0.00%     96.44% # Number of instructions issued per FU type, per thread (Count)
system.cpu.statIssuedInstType_0::SimdShift            0      0.00%     96.44% # Number of instructions issued per FU type, per thread (Count)
system.cpu.statIssuedInstType_0::SimdShiftAcc            0      0.00%     96.44% # Number of instructions issued per FU type, per thread (Count)
system.cpu.statIssuedInstType_0::SimdDiv            0      0.00%     96.44% # Number of instructions issued per FU type, per thread (Count)
system.cpu.statIssuedInstType_0::SimdSqrt            0      0.00%     96.44% # Number of instructions issued per FU type, per thread (Count)
system.cpu.statIssuedInstType_0::SimdFloatAdd            0      0.00%     96.44% # Number of instructions issued per FU type, per thread (Count)
system.cpu.statIssuedInstType_0::SimdFloatAlu            0      0.00%     96.44% # Number of instructions issued per FU type, per thread (Count)
system.cpu.statIssuedInstType_0::SimdFloatCmp            0      0.00%     96.44% # Number of instructions issued per FU type, per thread (Count)
system.cpu.statIssuedInstType_0::SimdFloatCvt           15      0.00%     96.45% # Number of instructions issued per FU type, per thread (Count)
system.cpu.statIssuedInstType_0::SimdFloatDiv            0      0.00%     96.45% # Number of instructions issued per FU type, per thread (Count)
system.cpu.statIssuedInstType_0::SimdFloatMisc            0      0.00%     96.45% # Number of instructions issued per FU type, per thread (Count)
system.cpu.statIssuedInstType_0::SimdFloatMult           17      0.00%     96.45% # Number of instructions issued per FU type, per thread (Count)
system.cpu.statIssuedInstType_0::SimdFloatMultAcc            0      0.00%     96.45% # Number of instructions issued per FU type, per thread (Count)
system.cpu.statIssuedInstType_0::SimdFloatSqrt            0      0.00%     96.45% # Number of instructions issued per FU type, per thread (Count)
system.cpu.statIssuedInstType_0::SimdReduceAdd            0      0.00%     96.45% # Number of instructions issued per FU type, per thread (Count)
system.cpu.statIssuedInstType_0::SimdReduceAlu            0      0.00%     96.45% # Number of instructions issued per FU type, per thread (Count)
system.cpu.statIssuedInstType_0::SimdReduceCmp            0      0.00%     96.45% # Number of instructions issued per FU type, per thread (Count)
system.cpu.statIssuedInstType_0::SimdFloatReduceAdd            0      0.00%     96.45% # Number of instructions issued per FU type, per thread (Count)
system.cpu.statIssuedInstType_0::SimdFloatReduceCmp            0      0.00%     96.45% # Number of instructions issued per FU type, per thread (Count)
system.cpu.statIssuedInstType_0::SimdAes            0      0.00%     96.45% # Number of instructions issued per FU type, per thread (Count)
system.cpu.statIssuedInstType_0::SimdAesMix            0      0.00%     96.45% # Number of instructions issued per FU type, per thread (Count)
system.cpu.statIssuedInstType_0::SimdSha1Hash            0      0.00%     96.45% # Number of instructions issued per FU type, per thread (Count)
system.cpu.statIssuedInstType_0::SimdSha1Hash2            0      0.00%     96.45% # Number of instructions issued per FU type, per thread (Count)
system.cpu.statIssuedInstType_0::SimdSha256Hash            0      0.00%     96.45% # Number of instructions issued per FU type, per thread (Count)
system.cpu.statIssuedInstType_0::SimdSha256Hash2            0      0.00%     96.45% # Number of instructions issued per FU type, per thread (Count)
system.cpu.statIssuedInstType_0::SimdShaSigma2            0      0.00%     96.45% # Number of instructions issued per FU type, per thread (Count)
system.cpu.statIssuedInstType_0::SimdShaSigma3            0      0.00%     96.45% # Number of instructions issued per FU type, per thread (Count)
system.cpu.statIssuedInstType_0::SimdPredAlu            0      0.00%     96.45% # Number of instructions issued per FU type, per thread (Count)
system.cpu.statIssuedInstType_0::MemRead        17711      1.65%     98.10% # Number of instructions issued per FU type, per thread (Count)
system.cpu.statIssuedInstType_0::MemWrite        18638      1.74%     99.84% # Number of instructions issued per FU type, per thread (Count)
system.cpu.statIssuedInstType_0::FloatMemRead          147      0.01%     99.85% # Number of instructions issued per FU type, per thread (Count)
system.cpu.statIssuedInstType_0::FloatMemWrite         1619      0.15%    100.00% # Number of instructions issued per FU type, per thread (Count)
system.cpu.statIssuedInstType_0::IprAccess            0      0.00%    100.00% # Number of instructions issued per FU type, per thread (Count)
system.cpu.statIssuedInstType_0::InstPrefetch            0      0.00%    100.00% # Number of instructions issued per FU type, per thread (Count)
system.cpu.statIssuedInstType_0::total        1072888                       # Number of instructions issued per FU type, per thread (Count)
system.cpu.issueRate                         2.300849                       # Inst issue rate ((Count/Cycle))
system.cpu.fuBusy                                4303                       # FU busy when requested (Count)
system.cpu.fuBusyRate                        0.004011                       # FU busy rate (busy events/executed inst) ((Count/Count))
system.cpu.intInstQueueReads                  2584623                       # Number of integer instruction queue reads (Count)
system.cpu.intInstQueueWrites                 1193729                       # Number of integer instruction queue writes (Count)
system.cpu.intInstQueueWakeupAccesses         1054833                       # Number of integer instruction queue wakeup accesses (Count)
system.cpu.fpInstQueueReads                      9098                       # Number of floating instruction queue reads (Count)
system.cpu.fpInstQueueWrites                     5045                       # Number of floating instruction queue writes (Count)
system.cpu.fpInstQueueWakeupAccesses             4425                       # Number of floating instruction queue wakeup accesses (Count)
system.cpu.vecInstQueueReads                        0                       # Number of vector instruction queue reads (Count)
system.cpu.vecInstQueueWrites                       0                       # Number of vector instruction queue writes (Count)
system.cpu.vecInstQueueWakeupAccesses               0                       # Number of vector instruction queue wakeup accesses (Count)
system.cpu.intAluAccesses                     1071683                       # Number of integer alu accesses (Count)
system.cpu.fpAluAccesses                         4564                       # Number of floating point alu accesses (Count)
system.cpu.vecAluAccesses                           0                       # Number of vector alu accesses (Count)
system.cpu.idleCycles                               0                       # Number of cycles IEW is idle (Cycle)
system.cpu.squashCycles                          5484                       # Number of cycles IEW is squashing (Cycle)
system.cpu.blockCycles                           9789                       # Number of cycles IEW is blocking (Cycle)
system.cpu.unblockCycles                         5296                       # Number of cycles IEW is unblocking (Cycle)
system.cpu.dispatchedInsts                    1101448                       # Number of instructions dispatched to IQ (Count)
system.cpu.dispSquashedInsts                      263                       # Number of squashed instructions skipped by dispatch (Count)
system.cpu.dispLoadInsts                        18595                       # Number of dispatched load instructions (Count)
system.cpu.dispStoreInsts                       20930                       # Number of dispatched store instructions (Count)
system.cpu.dispNonSpecInsts                         4                       # Number of dispatched non-speculative instructions (Count)
system.cpu.iqFullEvents                            20                       # Number of times the IQ has become full, causing a stall (Count)
system.cpu.lsqFullEvents                         5223                       # Number of times the LSQ has become full, causing a stall (Count)
system.cpu.memOrderViolationEvents                 10                       # Number of memory order violations (Count)
system.cpu.predictedTakenIncorrect               3076                       # Number of branches that were predicted taken incorrectly (Count)
system.cpu.predictedNotTakenIncorrect            3204                       # Number of branches that were predicted not taken incorrectly (Count)
system.cpu.branchMispredicts                     6280                       # Number of branch mispredicts detected at execute (Count)
system.cpu.numInsts                           1060602                       # Number of executed instructions (Count)
system.cpu.loadInsts                            17101                       # Number of load instructions executed (Count)
system.cpu.numSquashedInsts                     12280                       # Number of squashed instructions skipped in execute (Count)
system.cpu.numSwp                                   0                       # Number of swp insts executed (Count)
system.cpu.numNop                                   0                       # Number of nop insts executed (Count)
system.cpu.numRefs                              37541                       # Number of memory reference insts executed (Count)
system.cpu.numBranches                         149953                       # Number of branches executed (Count)
system.cpu.numStoreInsts                        20440                       # Number of stores executed (Count)
system.cpu.numRate                           2.274501                       # Inst execution rate ((Count/Cycle))
system.cpu.loadsRA                                316                       # Number of load instructions executed in runahead mode (Count)
system.cpu.instsToCommit                      1059999                       # Cumulative count of insts sent to commit (Count)
system.cpu.writebackCount                     1059258                       # Cumulative count of insts written-back (Count)
system.cpu.producerInst                        867038                       # Number of instructions producing a value (Count)
system.cpu.consumerInst                       1433253                       # Number of instructions consuming a value (Count)
system.cpu.wbRate                            2.271619                       # Insts written-back per cycle ((Count/Cycle))
system.cpu.wbFanout                          0.604944                       # Average fanout of values written-back ((Count/Count))
system.cpu.timesIdled                             333                       # Number of times that the entire CPU went into an idle state and unscheduled itself (Count)
system.cpu.idleCycles                           22806                       # Total number of cycles that the CPU has spent unscheduled due to idling (Cycle)
system.cpu.committedInsts                      566482                       # Number of Instructions Simulated (Count)
system.cpu.committedOps                       1004118                       # Number of Ops (including micro ops) Simulated (Count)
system.cpu.cpi                               0.823152                       # CPI: Cycles Per Instruction ((Cycle/Count))
system.cpu.totalCpi                          0.823152                       # CPI: Total CPI of All Threads ((Cycle/Count))
system.cpu.ipc                               1.214842                       # IPC: Instructions Per Cycle ((Count/Cycle))
system.cpu.totalIpc                          1.214842                       # IPC: Total IPC of All Threads ((Count/Cycle))
system.cpu.intRegfileReads                    1392493                       # Number of integer regfile reads (Count)
system.cpu.intRegfileWrites                    886354                       # Number of integer regfile writes (Count)
system.cpu.fpRegfileReads                        7792                       # Number of floating regfile reads (Count)
system.cpu.fpRegfileWrites                       2795                       # Number of floating regfile writes (Count)
system.cpu.ccRegfileReads                      920041                       # number of cc regfile reads (Count)
system.cpu.ccRegfileWrites                     477570                       # number of cc regfile writes (Count)
system.cpu.miscRegfileReads                    344478                       # number of misc regfile reads (Count)
system.cpu.enterRA                                 79                       # Number of times the CPU enters runahead (Count)
system.cpu.fetchedRA                             4935                       # Number of instructions fetched in runahead mode. (Count)
system.cpu.totalCyclesRA                         4224                       # total number of cycles the CPU spends in runahead (Cycle)
system.cpu.cyclesAvgRA                         53.468                       # average number of cycles the CPU spends in runahead ((Cycle/Count))
system.cpu.cyclesRobEmptyRA                      2525                       # total number of cycles when ROB would be empty in runahead (Cycle)
system.cpu.pctRobEmptyRA                       59.777                       # percentage of cycles spent in runahead, when ROB would be empty (Ratio)
system.cpu.totalInsertedRA                       3967                       # total number of instructions inserted into ROB in runahead (Count)
system.cpu.insertedAvgRA                       50.215                       # average number of instructions inserted into ROB in runahead (Ratio)
system.cpu.maxAtRobHd                              66                       # maximum number of cycles one instruction spends at the head of ROB in runahead (Count)
system.cpu.totalDecodedRA                        4124                       # total number of instructions decoded in runahead (Count)
system.cpu.decodedAvgRA                        52.203                       # average number of instructions decoded in runahead (Ratio)
system.cpu.MemDepUnit__0.insertedLoads          18595                       # Number of loads inserted to the mem dependence unit. (Count)
system.cpu.MemDepUnit__0.insertedStores         20930                       # Number of stores inserted to the mem dependence unit. (Count)
system.cpu.MemDepUnit__0.conflictingLoads         2072                       # Number of conflicting loads. (Count)
system.cpu.MemDepUnit__0.conflictingStores         4092                       # Number of conflicting stores. (Count)
system.cpu.MemDepUnit__1.insertedLoads              0                       # Number of loads inserted to the mem dependence unit. (Count)
system.cpu.MemDepUnit__1.insertedStores             0                       # Number of stores inserted to the mem dependence unit. (Count)
system.cpu.MemDepUnit__1.conflictingLoads            0                       # Number of conflicting loads. (Count)
system.cpu.MemDepUnit__1.conflictingStores            0                       # Number of conflicting stores. (Count)
system.cpu.MemDepUnit__2.insertedLoads              0                       # Number of loads inserted to the mem dependence unit. (Count)
system.cpu.MemDepUnit__2.insertedStores             0                       # Number of stores inserted to the mem dependence unit. (Count)
system.cpu.MemDepUnit__2.conflictingLoads            0                       # Number of conflicting loads. (Count)
system.cpu.MemDepUnit__2.conflictingStores            0                       # Number of conflicting stores. (Count)
system.cpu.MemDepUnit__3.insertedLoads              0                       # Number of loads inserted to the mem dependence unit. (Count)
system.cpu.MemDepUnit__3.insertedStores             0                       # Number of stores inserted to the mem dependence unit. (Count)
system.cpu.MemDepUnit__3.conflictingLoads            0                       # Number of conflicting loads. (Count)
system.cpu.MemDepUnit__3.conflictingStores            0                       # Number of conflicting stores. (Count)
system.cpu.branchPred.lookups                  170848                       # Number of BP lookups (Count)
system.cpu.branchPred.condPredicted            164841                       # Number of conditional branches predicted (Count)
system.cpu.branchPred.condIncorrect              5522                       # Number of conditional branches incorrect (Count)
system.cpu.branchPred.BTBLookups               105797                       # Number of BTB lookups (Count)
system.cpu.branchPred.BTBHits                  104911                       # Number of BTB hits (Count)
system.cpu.branchPred.BTBHitRatio            0.991625                       # BTB Hit Ratio (Ratio)
system.cpu.branchPred.RASUsed                     532                       # Number of times the RAS was used to get a target. (Count)
system.cpu.branchPred.RASIncorrect                  0                       # Number of incorrect RAS predictions. (Count)
system.cpu.branchPred.indirectLookups             430                       # Number of indirect predictor lookups. (Count)
system.cpu.branchPred.indirectHits                 33                       # Number of indirect target hits. (Count)
system.cpu.branchPred.indirectMisses              397                       # Number of indirect misses. (Count)
system.cpu.branchPred.indirectMispredicted           97                       # Number of mispredicted indirect branches. (Count)
system.cpu.commit.commitSquashedInsts           91372                       # The number of squashed insts skipped by commit (Count)
system.cpu.commit.branchMispredicts              5380                       # The number of times a branch was mispredicted (Count)
system.cpu.commit.numCommittedDist::samples       428732                       # Number of insts commited each cycle (Count)
system.cpu.commit.numCommittedDist::mean     2.346270                       # Number of insts commited each cycle (Count)
system.cpu.commit.numCommittedDist::stdev     2.183460                       # Number of insts commited each cycle (Count)
system.cpu.commit.numCommittedDist::underflows            0      0.00%      0.00% # Number of insts commited each cycle (Count)
system.cpu.commit.numCommittedDist::0           78993     18.42%     18.42% # Number of insts commited each cycle (Count)
system.cpu.commit.numCommittedDist::1          170839     39.85%     58.27% # Number of insts commited each cycle (Count)
system.cpu.commit.numCommittedDist::2            7703      1.80%     60.07% # Number of insts commited each cycle (Count)
system.cpu.commit.numCommittedDist::3           21575      5.03%     65.10% # Number of insts commited each cycle (Count)
system.cpu.commit.numCommittedDist::4           48202     11.24%     76.34% # Number of insts commited each cycle (Count)
system.cpu.commit.numCommittedDist::5           78966     18.42%     94.76% # Number of insts commited each cycle (Count)
system.cpu.commit.numCommittedDist::6            5329      1.24%     96.01% # Number of insts commited each cycle (Count)
system.cpu.commit.numCommittedDist::7            1661      0.39%     96.39% # Number of insts commited each cycle (Count)
system.cpu.commit.numCommittedDist::8           15464      3.61%    100.00% # Number of insts commited each cycle (Count)
system.cpu.commit.numCommittedDist::overflows            0      0.00%    100.00% # Number of insts commited each cycle (Count)
system.cpu.commit.numCommittedDist::min_value            0                       # Number of insts commited each cycle (Count)
system.cpu.commit.numCommittedDist::max_value            8                       # Number of insts commited each cycle (Count)
system.cpu.commit.numCommittedDist::total       428732                       # Number of insts commited each cycle (Count)
system.cpu.commit.instsCommitted               566482                       # Number of instructions committed (Count)
system.cpu.commit.opsCommitted                1004118                       # Number of ops (including micro ops) committed (Count)
system.cpu.commit.memRefs                       33940                       # Number of memory references committed (Count)
system.cpu.commit.loads                         14639                       # Number of loads committed (Count)
system.cpu.commit.amos                              0                       # Number of atomic instructions committed (Count)
system.cpu.commit.membars                           0                       # Number of memory barriers committed (Count)
system.cpu.commit.branches                     144594                       # Number of branches committed (Count)
system.cpu.commit.vectorInstructions                0                       # Number of committed Vector instructions. (Count)
system.cpu.commit.floating                       4149                       # Number of committed floating point instructions. (Count)
system.cpu.commit.integer                     1000987                       # Number of committed integer instructions. (Count)
system.cpu.commit.functionCalls                   286                       # Number of function calls committed. (Count)
system.cpu.commit.committedInstType_0::No_OpClass          500      0.05%      0.05% # Class of committed instruction (Count)
system.cpu.commit.committedInstType_0::IntAlu       967594     96.36%     96.41% # Class of committed instruction (Count)
system.cpu.commit.committedInstType_0::IntMult          522      0.05%     96.46% # Class of committed instruction (Count)
system.cpu.commit.committedInstType_0::IntDiv           21      0.00%     96.47% # Class of committed instruction (Count)
system.cpu.commit.committedInstType_0::FloatAdd          137      0.01%     96.48% # Class of committed instruction (Count)
system.cpu.commit.committedInstType_0::FloatCmp            0      0.00%     96.48% # Class of committed instruction (Count)
system.cpu.commit.committedInstType_0::FloatCvt            0      0.00%     96.48% # Class of committed instruction (Count)
system.cpu.commit.committedInstType_0::FloatMult            0      0.00%     96.48% # Class of committed instruction (Count)
system.cpu.commit.committedInstType_0::FloatMultAcc            0      0.00%     96.48% # Class of committed instruction (Count)
system.cpu.commit.committedInstType_0::FloatDiv            0      0.00%     96.48% # Class of committed instruction (Count)
system.cpu.commit.committedInstType_0::FloatMisc            0      0.00%     96.48% # Class of committed instruction (Count)
system.cpu.commit.committedInstType_0::FloatSqrt            0      0.00%     96.48% # Class of committed instruction (Count)
system.cpu.commit.committedInstType_0::SimdAdd         1024      0.10%     96.58% # Class of committed instruction (Count)
system.cpu.commit.committedInstType_0::SimdAddAcc            0      0.00%     96.58% # Class of committed instruction (Count)
system.cpu.commit.committedInstType_0::SimdAlu           94      0.01%     96.59% # Class of committed instruction (Count)
system.cpu.commit.committedInstType_0::SimdCmp            0      0.00%     96.59% # Class of committed instruction (Count)
system.cpu.commit.committedInstType_0::SimdCvt           46      0.00%     96.60% # Class of committed instruction (Count)
system.cpu.commit.committedInstType_0::SimdMisc          216      0.02%     96.62% # Class of committed instruction (Count)
system.cpu.commit.committedInstType_0::SimdMult            0      0.00%     96.62% # Class of committed instruction (Count)
system.cpu.commit.committedInstType_0::SimdMultAcc            0      0.00%     96.62% # Class of committed instruction (Count)
system.cpu.commit.committedInstType_0::SimdShift            0      0.00%     96.62% # Class of committed instruction (Count)
system.cpu.commit.committedInstType_0::SimdShiftAcc            0      0.00%     96.62% # Class of committed instruction (Count)
system.cpu.commit.committedInstType_0::SimdDiv            0      0.00%     96.62% # Class of committed instruction (Count)
system.cpu.commit.committedInstType_0::SimdSqrt            0      0.00%     96.62% # Class of committed instruction (Count)
system.cpu.commit.committedInstType_0::SimdFloatAdd            0      0.00%     96.62% # Class of committed instruction (Count)
system.cpu.commit.committedInstType_0::SimdFloatAlu            0      0.00%     96.62% # Class of committed instruction (Count)
system.cpu.commit.committedInstType_0::SimdFloatCmp            0      0.00%     96.62% # Class of committed instruction (Count)
system.cpu.commit.committedInstType_0::SimdFloatCvt           12      0.00%     96.62% # Class of committed instruction (Count)
system.cpu.commit.committedInstType_0::SimdFloatDiv            0      0.00%     96.62% # Class of committed instruction (Count)
system.cpu.commit.committedInstType_0::SimdFloatMisc            0      0.00%     96.62% # Class of committed instruction (Count)
system.cpu.commit.committedInstType_0::SimdFloatMult           12      0.00%     96.62% # Class of committed instruction (Count)
system.cpu.commit.committedInstType_0::SimdFloatMultAcc            0      0.00%     96.62% # Class of committed instruction (Count)
system.cpu.commit.committedInstType_0::SimdFloatSqrt            0      0.00%     96.62% # Class of committed instruction (Count)
system.cpu.commit.committedInstType_0::SimdReduceAdd            0      0.00%     96.62% # Class of committed instruction (Count)
system.cpu.commit.committedInstType_0::SimdReduceAlu            0      0.00%     96.62% # Class of committed instruction (Count)
system.cpu.commit.committedInstType_0::SimdReduceCmp            0      0.00%     96.62% # Class of committed instruction (Count)
system.cpu.commit.committedInstType_0::SimdFloatReduceAdd            0      0.00%     96.62% # Class of committed instruction (Count)
system.cpu.commit.committedInstType_0::SimdFloatReduceCmp            0      0.00%     96.62% # Class of committed instruction (Count)
system.cpu.commit.committedInstType_0::SimdAes            0      0.00%     96.62% # Class of committed instruction (Count)
system.cpu.commit.committedInstType_0::SimdAesMix            0      0.00%     96.62% # Class of committed instruction (Count)
system.cpu.commit.committedInstType_0::SimdSha1Hash            0      0.00%     96.62% # Class of committed instruction (Count)
system.cpu.commit.committedInstType_0::SimdSha1Hash2            0      0.00%     96.62% # Class of committed instruction (Count)
system.cpu.commit.committedInstType_0::SimdSha256Hash            0      0.00%     96.62% # Class of committed instruction (Count)
system.cpu.commit.committedInstType_0::SimdSha256Hash2            0      0.00%     96.62% # Class of committed instruction (Count)
system.cpu.commit.committedInstType_0::SimdShaSigma2            0      0.00%     96.62% # Class of committed instruction (Count)
system.cpu.commit.committedInstType_0::SimdShaSigma3            0      0.00%     96.62% # Class of committed instruction (Count)
system.cpu.commit.committedInstType_0::SimdPredAlu            0      0.00%     96.62% # Class of committed instruction (Count)
system.cpu.commit.committedInstType_0::MemRead        14556      1.45%     98.07% # Class of committed instruction (Count)
system.cpu.commit.committedInstType_0::MemWrite        17811      1.77%     99.84% # Class of committed instruction (Count)
system.cpu.commit.committedInstType_0::FloatMemRead           83      0.01%     99.85% # Class of committed instruction (Count)
system.cpu.commit.committedInstType_0::FloatMemWrite         1490      0.15%    100.00% # Class of committed instruction (Count)
system.cpu.commit.committedInstType_0::IprAccess            0      0.00%    100.00% # Class of committed instruction (Count)
system.cpu.commit.committedInstType_0::InstPrefetch            0      0.00%    100.00% # Class of committed instruction (Count)
system.cpu.commit.committedInstType_0::total      1004118                       # Class of committed instruction (Count)
system.cpu.commit.commitEligibleSamples         15464                       # number cycles where commit BW limit reached (Cycle)
system.cpu.dcache.demandHits::cpu.data          35118                       # number of demand (read+write) hits (Count)
system.cpu.dcache.demandHits::total             35118                       # number of demand (read+write) hits (Count)
system.cpu.dcache.overallHits::cpu.data         35118                       # number of overall hits (Count)
system.cpu.dcache.overallHits::total            35118                       # number of overall hits (Count)
system.cpu.dcache.demandMisses::cpu.data          562                       # number of demand (read+write) misses (Count)
system.cpu.dcache.demandMisses::total             562                       # number of demand (read+write) misses (Count)
system.cpu.dcache.overallMisses::cpu.data          562                       # number of overall misses (Count)
system.cpu.dcache.overallMisses::total            562                       # number of overall misses (Count)
system.cpu.dcache.demandMissLatency::cpu.data     55252999                       # number of demand (read+write) miss ticks (Tick)
system.cpu.dcache.demandMissLatency::total     55252999                       # number of demand (read+write) miss ticks (Tick)
system.cpu.dcache.overallMissLatency::cpu.data     55252999                       # number of overall miss ticks (Tick)
system.cpu.dcache.overallMissLatency::total     55252999                       # number of overall miss ticks (Tick)
system.cpu.dcache.demandAccesses::cpu.data        35680                       # number of demand (read+write) accesses (Count)
system.cpu.dcache.demandAccesses::total         35680                       # number of demand (read+write) accesses (Count)
system.cpu.dcache.overallAccesses::cpu.data        35680                       # number of overall (read+write) accesses (Count)
system.cpu.dcache.overallAccesses::total        35680                       # number of overall (read+write) accesses (Count)
system.cpu.dcache.demandMissRate::cpu.data     0.015751                       # miss rate for demand accesses (Ratio)
system.cpu.dcache.demandMissRate::total      0.015751                       # miss rate for demand accesses (Ratio)
system.cpu.dcache.overallMissRate::cpu.data     0.015751                       # miss rate for overall accesses (Ratio)
system.cpu.dcache.overallMissRate::total     0.015751                       # miss rate for overall accesses (Ratio)
system.cpu.dcache.demandAvgMissLatency::cpu.data 98314.944840                       # average overall miss latency ((Cycle/Count))
system.cpu.dcache.demandAvgMissLatency::total 98314.944840                       # average overall miss latency ((Cycle/Count))
system.cpu.dcache.overallAvgMissLatency::cpu.data 98314.944840                       # average overall miss latency ((Cycle/Count))
system.cpu.dcache.overallAvgMissLatency::total 98314.944840                       # average overall miss latency ((Cycle/Count))
system.cpu.dcache.blockedCycles::no_mshrs          449                       # number of cycles access was blocked (Cycle)
system.cpu.dcache.blockedCycles::no_targets            0                       # number of cycles access was blocked (Cycle)
system.cpu.dcache.blockedCauses::no_mshrs           16                       # number of times access was blocked (Count)
system.cpu.dcache.blockedCauses::no_targets            0                       # number of times access was blocked (Count)
system.cpu.dcache.avgBlocked::no_mshrs      28.062500                       # average number of cycles each access was blocked ((Cycle/Count))
system.cpu.dcache.avgBlocked::no_targets          nan                       # average number of cycles each access was blocked ((Cycle/Count))
system.cpu.dcache.writebacks::writebacks           44                       # number of writebacks (Count)
system.cpu.dcache.writebacks::total                44                       # number of writebacks (Count)
system.cpu.dcache.demandMshrHits::cpu.data          169                       # number of demand (read+write) MSHR hits (Count)
system.cpu.dcache.demandMshrHits::total           169                       # number of demand (read+write) MSHR hits (Count)
system.cpu.dcache.overallMshrHits::cpu.data          169                       # number of overall MSHR hits (Count)
system.cpu.dcache.overallMshrHits::total          169                       # number of overall MSHR hits (Count)
system.cpu.dcache.demandMshrMisses::cpu.data          393                       # number of demand (read+write) MSHR misses (Count)
system.cpu.dcache.demandMshrMisses::total          393                       # number of demand (read+write) MSHR misses (Count)
system.cpu.dcache.overallMshrMisses::cpu.data          393                       # number of overall MSHR misses (Count)
system.cpu.dcache.overallMshrMisses::total          393                       # number of overall MSHR misses (Count)
system.cpu.dcache.demandMshrMissLatency::cpu.data     39870999                       # number of demand (read+write) MSHR miss ticks (Tick)
system.cpu.dcache.demandMshrMissLatency::total     39870999                       # number of demand (read+write) MSHR miss ticks (Tick)
system.cpu.dcache.overallMshrMissLatency::cpu.data     39870999                       # number of overall MSHR miss ticks (Tick)
system.cpu.dcache.overallMshrMissLatency::total     39870999                       # number of overall MSHR miss ticks (Tick)
system.cpu.dcache.demandMshrMissRate::cpu.data     0.011015                       # mshr miss ratio for demand accesses (Ratio)
system.cpu.dcache.demandMshrMissRate::total     0.011015                       # mshr miss ratio for demand accesses (Ratio)
system.cpu.dcache.overallMshrMissRate::cpu.data     0.011015                       # mshr miss ratio for overall accesses (Ratio)
system.cpu.dcache.overallMshrMissRate::total     0.011015                       # mshr miss ratio for overall accesses (Ratio)
system.cpu.dcache.demandAvgMshrMissLatency::cpu.data 101452.923664                       # average overall mshr miss latency ((Cycle/Count))
system.cpu.dcache.demandAvgMshrMissLatency::total 101452.923664                       # average overall mshr miss latency ((Cycle/Count))
system.cpu.dcache.overallAvgMshrMissLatency::cpu.data 101452.923664                       # average overall mshr miss latency ((Cycle/Count))
system.cpu.dcache.overallAvgMshrMissLatency::total 101452.923664                       # average overall mshr miss latency ((Cycle/Count))
system.cpu.dcache.replacements                     54                       # number of replacements (Count)
system.cpu.dcache.ReadReq.hits::cpu.data        16077                       # number of ReadReq hits (Count)
system.cpu.dcache.ReadReq.hits::total           16077                       # number of ReadReq hits (Count)
system.cpu.dcache.ReadReq.misses::cpu.data          302                       # number of ReadReq misses (Count)
system.cpu.dcache.ReadReq.misses::total           302                       # number of ReadReq misses (Count)
system.cpu.dcache.ReadReq.missLatency::cpu.data     28911000                       # number of ReadReq miss ticks (Tick)
system.cpu.dcache.ReadReq.missLatency::total     28911000                       # number of ReadReq miss ticks (Tick)
system.cpu.dcache.ReadReq.accesses::cpu.data        16379                       # number of ReadReq accesses(hits+misses) (Count)
system.cpu.dcache.ReadReq.accesses::total        16379                       # number of ReadReq accesses(hits+misses) (Count)
system.cpu.dcache.ReadReq.missRate::cpu.data     0.018438                       # miss rate for ReadReq accesses (Ratio)
system.cpu.dcache.ReadReq.missRate::total     0.018438                       # miss rate for ReadReq accesses (Ratio)
system.cpu.dcache.ReadReq.avgMissLatency::cpu.data 95731.788079                       # average ReadReq miss latency ((Tick/Count))
system.cpu.dcache.ReadReq.avgMissLatency::total 95731.788079                       # average ReadReq miss latency ((Tick/Count))
system.cpu.dcache.ReadReq.mshrHits::cpu.data          166                       # number of ReadReq MSHR hits (Count)
system.cpu.dcache.ReadReq.mshrHits::total          166                       # number of ReadReq MSHR hits (Count)
system.cpu.dcache.ReadReq.mshrMisses::cpu.data          136                       # number of ReadReq MSHR misses (Count)
system.cpu.dcache.ReadReq.mshrMisses::total          136                       # number of ReadReq MSHR misses (Count)
system.cpu.dcache.ReadReq.mshrMissLatency::cpu.data     14211000                       # number of ReadReq MSHR miss ticks (Tick)
system.cpu.dcache.ReadReq.mshrMissLatency::total     14211000                       # number of ReadReq MSHR miss ticks (Tick)
system.cpu.dcache.ReadReq.mshrMissRate::cpu.data     0.008303                       # mshr miss rate for ReadReq accesses (Ratio)
system.cpu.dcache.ReadReq.mshrMissRate::total     0.008303                       # mshr miss rate for ReadReq accesses (Ratio)
system.cpu.dcache.ReadReq.avgMshrMissLatency::cpu.data 104492.647059                       # average ReadReq mshr miss latency ((Tick/Count))
system.cpu.dcache.ReadReq.avgMshrMissLatency::total 104492.647059                       # average ReadReq mshr miss latency ((Tick/Count))
system.cpu.dcache.WriteReq.hits::cpu.data        19041                       # number of WriteReq hits (Count)
system.cpu.dcache.WriteReq.hits::total          19041                       # number of WriteReq hits (Count)
system.cpu.dcache.WriteReq.misses::cpu.data          260                       # number of WriteReq misses (Count)
system.cpu.dcache.WriteReq.misses::total          260                       # number of WriteReq misses (Count)
system.cpu.dcache.WriteReq.missLatency::cpu.data     26341999                       # number of WriteReq miss ticks (Tick)
system.cpu.dcache.WriteReq.missLatency::total     26341999                       # number of WriteReq miss ticks (Tick)
system.cpu.dcache.WriteReq.accesses::cpu.data        19301                       # number of WriteReq accesses(hits+misses) (Count)
system.cpu.dcache.WriteReq.accesses::total        19301                       # number of WriteReq accesses(hits+misses) (Count)
system.cpu.dcache.WriteReq.missRate::cpu.data     0.013471                       # miss rate for WriteReq accesses (Ratio)
system.cpu.dcache.WriteReq.missRate::total     0.013471                       # miss rate for WriteReq accesses (Ratio)
system.cpu.dcache.WriteReq.avgMissLatency::cpu.data 101315.380769                       # average WriteReq miss latency ((Tick/Count))
system.cpu.dcache.WriteReq.avgMissLatency::total 101315.380769                       # average WriteReq miss latency ((Tick/Count))
system.cpu.dcache.WriteReq.mshrHits::cpu.data            3                       # number of WriteReq MSHR hits (Count)
system.cpu.dcache.WriteReq.mshrHits::total            3                       # number of WriteReq MSHR hits (Count)
system.cpu.dcache.WriteReq.mshrMisses::cpu.data          257                       # number of WriteReq MSHR misses (Count)
system.cpu.dcache.WriteReq.mshrMisses::total          257                       # number of WriteReq MSHR misses (Count)
system.cpu.dcache.WriteReq.mshrMissLatency::cpu.data     25659999                       # number of WriteReq MSHR miss ticks (Tick)
system.cpu.dcache.WriteReq.mshrMissLatency::total     25659999                       # number of WriteReq MSHR miss ticks (Tick)
system.cpu.dcache.WriteReq.mshrMissRate::cpu.data     0.013315                       # mshr miss rate for WriteReq accesses (Ratio)
system.cpu.dcache.WriteReq.mshrMissRate::total     0.013315                       # mshr miss rate for WriteReq accesses (Ratio)
system.cpu.dcache.WriteReq.avgMshrMissLatency::cpu.data 99844.354086                       # average WriteReq mshr miss latency ((Tick/Count))
system.cpu.dcache.WriteReq.avgMshrMissLatency::total 99844.354086                       # average WriteReq mshr miss latency ((Tick/Count))
system.cpu.dcache.power_state.pwrStateResidencyTicks::UNDEFINED    466300000                       # Cumulative time (in ticks) in various power states (Tick)
system.cpu.dcache.tags.tagsInUse           302.527789                       # Average ticks per tags in use ((Tick/Count))
system.cpu.dcache.tags.totalRefs                35511                       # Total number of references to valid blocks. (Count)
system.cpu.dcache.tags.sampledRefs                393                       # Sample count of references to valid blocks. (Count)
system.cpu.dcache.tags.avgRefs              90.358779                       # Average number of references to valid blocks. ((Count/Count))
system.cpu.dcache.tags.warmupTick              222000                       # The tick when the warmup percentage was hit. (Tick)
system.cpu.dcache.tags.occupancies::cpu.data   302.527789                       # Average occupied blocks per tick, per requestor ((Count/Tick))
system.cpu.dcache.tags.avgOccs::cpu.data     0.590875                       # Average percentage of cache occupancy ((Ratio/Tick))
system.cpu.dcache.tags.avgOccs::total        0.590875                       # Average percentage of cache occupancy ((Ratio/Tick))
system.cpu.dcache.tags.occupanciesTaskId::1024          339                       # Occupied blocks per task id (Count)
system.cpu.dcache.tags.ageTaskId_1024::0           21                       # Occupied blocks per task id, per block age (Count)
system.cpu.dcache.tags.ageTaskId_1024::2          318                       # Occupied blocks per task id, per block age (Count)
system.cpu.dcache.tags.ratioOccsTaskId::1024     0.662109                       # Ratio of occupied blocks and all blocks, per task id (Ratio)
system.cpu.dcache.tags.tagAccesses              71753                       # Number of tag accesses (Count)
system.cpu.dcache.tags.dataAccesses             71753                       # Number of data accesses (Count)
system.cpu.dcache.tags.power_state.pwrStateResidencyTicks::UNDEFINED    466300000                       # Cumulative time (in ticks) in various power states (Tick)
system.cpu.decode.idleCycles                   128357                       # Number of cycles decode is idle (Cycle)
system.cpu.decode.blockedCycles                 78897                       # Number of cycles decode is blocked (Cycle)
system.cpu.decode.runCycles                    206264                       # Number of cycles decode is running (Cycle)
system.cpu.decode.unblockCycles                 24493                       # Number of cycles decode is unblocking (Cycle)
system.cpu.decode.squashCycles                   5484                       # Number of cycles decode is squashing (Cycle)
system.cpu.decode.branchResolved               103126                       # Number of times decode resolved a branch (Count)
system.cpu.decode.branchMispred                   253                       # Number of times decode detected a branch misprediction (Count)
system.cpu.decode.decodedInsts                1150797                       # Number of instructions handled by decode (Count)
system.cpu.decode.squashedInsts                  1138                       # Number of squashed instructions handled by decode (Count)
system.cpu.fetch.icacheStallCycles             135080                       # Number of cycles fetch is stalled on an Icache miss (Cycle)
system.cpu.fetch.insts                         660355                       # Number of instructions fetch has processed (Count)
system.cpu.fetch.branches                      170848                       # Number of branches that fetch encountered (Count)
system.cpu.fetch.predictedBranches             105476                       # Number of branches that fetch has predicted taken (Count)
system.cpu.fetch.cycles                        301902                       # Number of cycles fetch has run and was not squashing or blocked (Cycle)
system.cpu.fetch.squashCycles                   11446                       # Number of cycles fetch has spent squashing (Cycle)
system.cpu.fetch.miscStallCycles                  110                       # Number of cycles fetch has spent waiting on interrupts, or bad addresses, or out of MSHRs (Cycle)
system.cpu.fetch.pendingTrapStallCycles           648                       # Number of stall cycles due to pending traps (Cycle)
system.cpu.fetch.pendingQuiesceStallCycles            5                       # Number of stall cycles due to pending quiesce instructions (Cycle)
system.cpu.fetch.icacheWaitRetryStallCycles           27                       # Number of stall cycles due to full MSHR (Cycle)
system.cpu.fetch.cacheLines                    119176                       # Number of cache lines fetched (Count)
system.cpu.fetch.icacheSquashes                  1977                       # Number of outstanding Icache misses that were squashed (Count)
system.cpu.fetch.nisnDist::samples             443495                       # Number of instructions fetched each cycle (Total) (Count)
system.cpu.fetch.nisnDist::mean              2.651180                       # Number of instructions fetched each cycle (Total) (Count)
system.cpu.fetch.nisnDist::stdev             3.002315                       # Number of instructions fetched each cycle (Total) (Count)
system.cpu.fetch.nisnDist::underflows               0      0.00%      0.00% # Number of instructions fetched each cycle (Total) (Count)
system.cpu.fetch.nisnDist::0                   197678     44.57%     44.57% # Number of instructions fetched each cycle (Total) (Count)
system.cpu.fetch.nisnDist::1                     4763      1.07%     45.65% # Number of instructions fetched each cycle (Total) (Count)
system.cpu.fetch.nisnDist::2                    47443     10.70%     56.34% # Number of instructions fetched each cycle (Total) (Count)
system.cpu.fetch.nisnDist::3                    48579     10.95%     67.30% # Number of instructions fetched each cycle (Total) (Count)
system.cpu.fetch.nisnDist::4                    49901     11.25%     78.55% # Number of instructions fetched each cycle (Total) (Count)
system.cpu.fetch.nisnDist::5                     7415      1.67%     80.22% # Number of instructions fetched each cycle (Total) (Count)
system.cpu.fetch.nisnDist::6                     2793      0.63%     80.85% # Number of instructions fetched each cycle (Total) (Count)
system.cpu.fetch.nisnDist::7                     2422      0.55%     81.40% # Number of instructions fetched each cycle (Total) (Count)
system.cpu.fetch.nisnDist::8                    82501     18.60%    100.00% # Number of instructions fetched each cycle (Total) (Count)
system.cpu.fetch.nisnDist::overflows                0      0.00%    100.00% # Number of instructions fetched each cycle (Total) (Count)
system.cpu.fetch.nisnDist::min_value                0                       # Number of instructions fetched each cycle (Total) (Count)
system.cpu.fetch.nisnDist::max_value                8                       # Number of instructions fetched each cycle (Total) (Count)
system.cpu.fetch.nisnDist::total               443495                       # Number of instructions fetched each cycle (Total) (Count)
system.cpu.fetch.branchRate                  0.366390                       # Number of branch fetches per cycle (Ratio)
system.cpu.fetch.rate                        1.416156                       # Number of inst fetches per cycle ((Count/Cycle))
system.cpu.icache.demandHits::cpu.inst         118448                       # number of demand (read+write) hits (Count)
system.cpu.icache.demandHits::total            118448                       # number of demand (read+write) hits (Count)
system.cpu.icache.overallHits::cpu.inst        118448                       # number of overall hits (Count)
system.cpu.icache.overallHits::total           118448                       # number of overall hits (Count)
system.cpu.icache.demandMisses::cpu.inst          728                       # number of demand (read+write) misses (Count)
system.cpu.icache.demandMisses::total             728                       # number of demand (read+write) misses (Count)
system.cpu.icache.overallMisses::cpu.inst          728                       # number of overall misses (Count)
system.cpu.icache.overallMisses::total            728                       # number of overall misses (Count)
system.cpu.icache.demandMissLatency::cpu.inst     66484000                       # number of demand (read+write) miss ticks (Tick)
system.cpu.icache.demandMissLatency::total     66484000                       # number of demand (read+write) miss ticks (Tick)
system.cpu.icache.overallMissLatency::cpu.inst     66484000                       # number of overall miss ticks (Tick)
system.cpu.icache.overallMissLatency::total     66484000                       # number of overall miss ticks (Tick)
system.cpu.icache.demandAccesses::cpu.inst       119176                       # number of demand (read+write) accesses (Count)
system.cpu.icache.demandAccesses::total        119176                       # number of demand (read+write) accesses (Count)
system.cpu.icache.overallAccesses::cpu.inst       119176                       # number of overall (read+write) accesses (Count)
system.cpu.icache.overallAccesses::total       119176                       # number of overall (read+write) accesses (Count)
system.cpu.icache.demandMissRate::cpu.inst     0.006109                       # miss rate for demand accesses (Ratio)
system.cpu.icache.demandMissRate::total      0.006109                       # miss rate for demand accesses (Ratio)
system.cpu.icache.overallMissRate::cpu.inst     0.006109                       # miss rate for overall accesses (Ratio)
system.cpu.icache.overallMissRate::total     0.006109                       # miss rate for overall accesses (Ratio)
system.cpu.icache.demandAvgMissLatency::cpu.inst 91324.175824                       # average overall miss latency ((Cycle/Count))
system.cpu.icache.demandAvgMissLatency::total 91324.175824                       # average overall miss latency ((Cycle/Count))
system.cpu.icache.overallAvgMissLatency::cpu.inst 91324.175824                       # average overall miss latency ((Cycle/Count))
system.cpu.icache.overallAvgMissLatency::total 91324.175824                       # average overall miss latency ((Cycle/Count))
system.cpu.icache.blockedCycles::no_mshrs          214                       # number of cycles access was blocked (Cycle)
system.cpu.icache.blockedCycles::no_targets            0                       # number of cycles access was blocked (Cycle)
system.cpu.icache.blockedCauses::no_mshrs            6                       # number of times access was blocked (Count)
system.cpu.icache.blockedCauses::no_targets            0                       # number of times access was blocked (Count)
system.cpu.icache.avgBlocked::no_mshrs      35.666667                       # average number of cycles each access was blocked ((Cycle/Count))
system.cpu.icache.avgBlocked::no_targets          nan                       # average number of cycles each access was blocked ((Cycle/Count))
system.cpu.icache.demandMshrHits::cpu.inst          177                       # number of demand (read+write) MSHR hits (Count)
system.cpu.icache.demandMshrHits::total           177                       # number of demand (read+write) MSHR hits (Count)
system.cpu.icache.overallMshrHits::cpu.inst          177                       # number of overall MSHR hits (Count)
system.cpu.icache.overallMshrHits::total          177                       # number of overall MSHR hits (Count)
system.cpu.icache.demandMshrMisses::cpu.inst          551                       # number of demand (read+write) MSHR misses (Count)
system.cpu.icache.demandMshrMisses::total          551                       # number of demand (read+write) MSHR misses (Count)
system.cpu.icache.overallMshrMisses::cpu.inst          551                       # number of overall MSHR misses (Count)
system.cpu.icache.overallMshrMisses::total          551                       # number of overall MSHR misses (Count)
system.cpu.icache.demandMshrMissLatency::cpu.inst     52809000                       # number of demand (read+write) MSHR miss ticks (Tick)
system.cpu.icache.demandMshrMissLatency::total     52809000                       # number of demand (read+write) MSHR miss ticks (Tick)
system.cpu.icache.overallMshrMissLatency::cpu.inst     52809000                       # number of overall MSHR miss ticks (Tick)
system.cpu.icache.overallMshrMissLatency::total     52809000                       # number of overall MSHR miss ticks (Tick)
system.cpu.icache.demandMshrMissRate::cpu.inst     0.004623                       # mshr miss ratio for demand accesses (Ratio)
system.cpu.icache.demandMshrMissRate::total     0.004623                       # mshr miss ratio for demand accesses (Ratio)
system.cpu.icache.overallMshrMissRate::cpu.inst     0.004623                       # mshr miss ratio for overall accesses (Ratio)
system.cpu.icache.overallMshrMissRate::total     0.004623                       # mshr miss ratio for overall accesses (Ratio)
system.cpu.icache.demandAvgMshrMissLatency::cpu.inst 95842.105263                       # average overall mshr miss latency ((Cycle/Count))
system.cpu.icache.demandAvgMshrMissLatency::total 95842.105263                       # average overall mshr miss latency ((Cycle/Count))
system.cpu.icache.overallAvgMshrMissLatency::cpu.inst 95842.105263                       # average overall mshr miss latency ((Cycle/Count))
system.cpu.icache.overallAvgMshrMissLatency::total 95842.105263                       # average overall mshr miss latency ((Cycle/Count))
system.cpu.icache.replacements                    296                       # number of replacements (Count)
system.cpu.icache.ReadReq.hits::cpu.inst       118448                       # number of ReadReq hits (Count)
system.cpu.icache.ReadReq.hits::total          118448                       # number of ReadReq hits (Count)
system.cpu.icache.ReadReq.misses::cpu.inst          728                       # number of ReadReq misses (Count)
system.cpu.icache.ReadReq.misses::total           728                       # number of ReadReq misses (Count)
system.cpu.icache.ReadReq.missLatency::cpu.inst     66484000                       # number of ReadReq miss ticks (Tick)
system.cpu.icache.ReadReq.missLatency::total     66484000                       # number of ReadReq miss ticks (Tick)
system.cpu.icache.ReadReq.accesses::cpu.inst       119176                       # number of ReadReq accesses(hits+misses) (Count)
system.cpu.icache.ReadReq.accesses::total       119176                       # number of ReadReq accesses(hits+misses) (Count)
system.cpu.icache.ReadReq.missRate::cpu.inst     0.006109                       # miss rate for ReadReq accesses (Ratio)
system.cpu.icache.ReadReq.missRate::total     0.006109                       # miss rate for ReadReq accesses (Ratio)
system.cpu.icache.ReadReq.avgMissLatency::cpu.inst 91324.175824                       # average ReadReq miss latency ((Tick/Count))
system.cpu.icache.ReadReq.avgMissLatency::total 91324.175824                       # average ReadReq miss latency ((Tick/Count))
system.cpu.icache.ReadReq.mshrHits::cpu.inst          177                       # number of ReadReq MSHR hits (Count)
system.cpu.icache.ReadReq.mshrHits::total          177                       # number of ReadReq MSHR hits (Count)
system.cpu.icache.ReadReq.mshrMisses::cpu.inst          551                       # number of ReadReq MSHR misses (Count)
system.cpu.icache.ReadReq.mshrMisses::total          551                       # number of ReadReq MSHR misses (Count)
system.cpu.icache.ReadReq.mshrMissLatency::cpu.inst     52809000                       # number of ReadReq MSHR miss ticks (Tick)
system.cpu.icache.ReadReq.mshrMissLatency::total     52809000                       # number of ReadReq MSHR miss ticks (Tick)
system.cpu.icache.ReadReq.mshrMissRate::cpu.inst     0.004623                       # mshr miss rate for ReadReq accesses (Ratio)
system.cpu.icache.ReadReq.mshrMissRate::total     0.004623                       # mshr miss rate for ReadReq accesses (Ratio)
system.cpu.icache.ReadReq.avgMshrMissLatency::cpu.inst 95842.105263                       # average ReadReq mshr miss latency ((Tick/Count))
system.cpu.icache.ReadReq.avgMshrMissLatency::total 95842.105263                       # average ReadReq mshr miss latency ((Tick/Count))
system.cpu.icache.power_state.pwrStateResidencyTicks::UNDEFINED    466300000                       # Cumulative time (in ticks) in various power states (Tick)
system.cpu.icache.tags.tagsInUse           241.529792                       # Average ticks per tags in use ((Tick/Count))
system.cpu.icache.tags.totalRefs               118998                       # Total number of references to valid blocks. (Count)
system.cpu.icache.tags.sampledRefs                550                       # Sample count of references to valid blocks. (Count)
system.cpu.icache.tags.avgRefs             216.360000                       # Average number of references to valid blocks. ((Count/Count))
system.cpu.icache.tags.warmupTick              107000                       # The tick when the warmup percentage was hit. (Tick)
system.cpu.icache.tags.occupancies::cpu.inst   241.529792                       # Average occupied blocks per tick, per requestor ((Count/Tick))
system.cpu.icache.tags.avgOccs::cpu.inst     0.943476                       # Average percentage of cache occupancy ((Ratio/Tick))
system.cpu.icache.tags.avgOccs::total        0.943476                       # Average percentage of cache occupancy ((Ratio/Tick))
system.cpu.icache.tags.occupanciesTaskId::1024          254                       # Occupied blocks per task id (Count)
system.cpu.icache.tags.ageTaskId_1024::0           63                       # Occupied blocks per task id, per block age (Count)
system.cpu.icache.tags.ageTaskId_1024::1            2                       # Occupied blocks per task id, per block age (Count)
system.cpu.icache.tags.ageTaskId_1024::2          189                       # Occupied blocks per task id, per block age (Count)
system.cpu.icache.tags.ratioOccsTaskId::1024     0.992188                       # Ratio of occupied blocks and all blocks, per task id (Ratio)
system.cpu.icache.tags.tagAccesses             238902                       # Number of tag accesses (Count)
system.cpu.icache.tags.dataAccesses            238902                       # Number of data accesses (Count)
system.cpu.icache.tags.power_state.pwrStateResidencyTicks::UNDEFINED    466300000                       # Cumulative time (in ticks) in various power states (Tick)
system.cpu.interrupts.clk_domain.clock          16000                       # Clock period in ticks (Tick)
system.cpu.lsq0.forwLoads                         910                       # Number of loads that had data forwarded from stores (Count)
system.cpu.lsq0.squashedLoads                    3956                       # Number of loads squashed (Count)
system.cpu.lsq0.ignoredResponses                    1                       # Number of memory responses ignored because the instruction is squashed (Count)
system.cpu.lsq0.memOrderViolation                  10                       # Number of memory ordering violations (Count)
system.cpu.lsq0.squashedStores                   1629                       # Number of stores squashed (Count)
system.cpu.lsq0.rescheduledLoads                    0                       # Number of loads that were rescheduled (Count)
system.cpu.lsq0.blockedByCache                     13                       # Number of times an access to memory failed due to the cache being blocked (Count)
system.cpu.lsq0.loadToUse::samples              14639                       # Distribution of cycle latency between the first time a load is issued and its completion (Unspecified)
system.cpu.lsq0.loadToUse::mean              3.058064                       # Distribution of cycle latency between the first time a load is issued and its completion (Unspecified)
system.cpu.lsq0.loadToUse::stdev             1.226073                       # Distribution of cycle latency between the first time a load is issued and its completion (Unspecified)
system.cpu.lsq0.loadToUse::0-9                  14630     99.94%     99.94% # Distribution of cycle latency between the first time a load is issued and its completion (Unspecified)
system.cpu.lsq0.loadToUse::20-29                    5      0.03%     99.97% # Distribution of cycle latency between the first time a load is issued and its completion (Unspecified)
system.cpu.lsq0.loadToUse::60-69                    3      0.02%     99.99% # Distribution of cycle latency between the first time a load is issued and its completion (Unspecified)
system.cpu.lsq0.loadToUse::70-79                    1      0.01%    100.00% # Distribution of cycle latency between the first time a load is issued and its completion (Unspecified)
system.cpu.lsq0.loadToUse::min_value                2                       # Distribution of cycle latency between the first time a load is issued and its completion (Unspecified)
system.cpu.lsq0.loadToUse::max_value               70                       # Distribution of cycle latency between the first time a load is issued and its completion (Unspecified)
system.cpu.lsq0.loadToUse::total                14639                       # Distribution of cycle latency between the first time a load is issued and its completion (Unspecified)
system.cpu.mmu.dtb.rdAccesses                   17373                       # TLB accesses on read requests (Count)
system.cpu.mmu.dtb.wrAccesses                   20124                       # TLB accesses on write requests (Count)
system.cpu.mmu.dtb.rdMisses                        77                       # TLB misses on read requests (Count)
system.cpu.mmu.dtb.wrMisses                        57                       # TLB misses on write requests (Count)
system.cpu.mmu.dtb.walker.power_state.pwrStateResidencyTicks::UNDEFINED    466300000                       # Cumulative time (in ticks) in various power states (Tick)
system.cpu.mmu.itb.rdAccesses                       0                       # TLB accesses on read requests (Count)
system.cpu.mmu.itb.wrAccesses                  119299                       # TLB accesses on write requests (Count)
system.cpu.mmu.itb.rdMisses                         0                       # TLB misses on read requests (Count)
system.cpu.mmu.itb.wrMisses                       167                       # TLB misses on write requests (Count)
system.cpu.mmu.itb.walker.power_state.pwrStateResidencyTicks::UNDEFINED    466300000                       # Cumulative time (in ticks) in various power states (Tick)
system.cpu.power_state.pwrStateResidencyTicks::ON    466300000                       # Cumulative time (in ticks) in various power states (Tick)
system.cpu.rename.squashCycles                   5484                       # Number of cycles rename is squashing (Cycle)
system.cpu.rename.idleCycles                   140799                       # Number of cycles rename is idle (Cycle)
system.cpu.rename.blockCycles                   15488                       # Number of cycles rename is blocking (Cycle)
system.cpu.rename.serializeStallCycles             45                       # count of cycles rename stalled for serializing inst (Cycle)
system.cpu.rename.runCycles                    217296                       # Number of cycles rename is running (Cycle)
system.cpu.rename.unblockCycles                 64383                       # Number of cycles rename is unblocking (Cycle)
system.cpu.rename.renamedInsts                1137056                       # Number of instructions processed by rename (Count)
system.cpu.rename.IQFullEvents                  45886                       # Number of times rename has blocked due to IQ full (Count)
system.cpu.rename.SQFullEvents                  13815                       # Number of times rename has blocked due to SQ full (Count)
system.cpu.rename.renamedOperands             1459483                       # Number of destination operands rename has renamed (Count)
system.cpu.rename.lookups                     2894980                       # Number of register rename lookups that rename has made (Count)
system.cpu.rename.intLookups                  1508313                       # Number of integer rename lookups (Count)
system.cpu.rename.fpLookups                      7991                       # Number of floating rename lookups (Count)
system.cpu.rename.committedMaps               1301613                       # Number of HB maps that are committed (Count)
system.cpu.rename.undoneMaps                   157856                       # Number of HB maps that are undone due to squashing (Count)
[...]
system.mem_ctrl.requestorReadAvgLat::cpu.inst     26275.63                       # Per-requestor read average memory access latency ((Tick/Count))
system.mem_ctrl.requestorReadAvgLat::cpu.data     28083.76                       # Per-requestor read average memory access latency ((Tick/Count))
system.mem_ctrl.dram.bytesRead::cpu.inst        33088                       # Number of bytes read from this memory (Byte)
system.mem_ctrl.dram.bytesRead::cpu.data        24832                       # Number of bytes read from this memory (Byte)
system.mem_ctrl.dram.bytesRead::total           57920                       # Number of bytes read from this memory (Byte)
system.mem_ctrl.dram.bytesInstRead::cpu.inst        33088                       # Number of instructions bytes read from this memory (Byte)
system.mem_ctrl.dram.bytesInstRead::total        33088                       # Number of instructions bytes read from this memory (Byte)
system.mem_ctrl.dram.numReads::cpu.inst           517                       # Number of read requests responded to by this memory (Count)
system.mem_ctrl.dram.numReads::cpu.data           388                       # Number of read requests responded to by this memory (Count)
system.mem_ctrl.dram.numReads::total              905                       # Number of read requests responded to by this memory (Count)
system.mem_ctrl.dram.bwRead::cpu.inst        70958610                       # Total read bandwidth from this memory ((Byte/Second))
system.mem_ctrl.dram.bwRead::cpu.data        53253270                       # Total read bandwidth from this memory ((Byte/Second))
system.mem_ctrl.dram.bwRead::total          124211881                       # Total read bandwidth from this memory ((Byte/Second))
system.mem_ctrl.dram.bwInstRead::cpu.inst     70958610                       # Instruction read bandwidth from this memory ((Byte/Second))
system.mem_ctrl.dram.bwInstRead::total       70958610                       # Instruction read bandwidth from this memory ((Byte/Second))
system.mem_ctrl.dram.bwTotal::cpu.inst       70958610                       # Total bandwidth to/from this memory ((Byte/Second))
system.mem_ctrl.dram.bwTotal::cpu.data       53253270                       # Total bandwidth to/from this memory ((Byte/Second))
system.mem_ctrl.dram.bwTotal::total         124211881                       # Total bandwidth to/from this memory ((Byte/Second))
system.mem_ctrl.dram.readBursts                   905                       # Number of DRAM read bursts (Count)
system.mem_ctrl.dram.writeBursts                    0                       # Number of DRAM write bursts (Count)
system.mem_ctrl.dram.perBankRdBursts::0            17                       # Per bank write bursts (Count)
system.mem_ctrl.dram.perBankRdBursts::1            81                       # Per bank write bursts (Count)
system.mem_ctrl.dram.perBankRdBursts::2            39                       # Per bank write bursts (Count)
system.mem_ctrl.dram.perBankRdBursts::3           146                       # Per bank write bursts (Count)
system.mem_ctrl.dram.perBankRdBursts::4           101                       # Per bank write bursts (Count)
system.mem_ctrl.dram.perBankRdBursts::5            52                       # Per bank write bursts (Count)
system.mem_ctrl.dram.perBankRdBursts::6            17                       # Per bank write bursts (Count)
system.mem_ctrl.dram.perBankRdBursts::7            74                       # Per bank write bursts (Count)
system.mem_ctrl.dram.perBankRdBursts::8           115                       # Per bank write bursts (Count)
system.mem_ctrl.dram.perBankRdBursts::9            82                       # Per bank write bursts (Count)
system.mem_ctrl.dram.perBankRdBursts::10           25                       # Per bank write bursts (Count)
system.mem_ctrl.dram.perBankRdBursts::11           40                       # Per bank write bursts (Count)
system.mem_ctrl.dram.perBankRdBursts::12            9                       # Per bank write bursts (Count)
system.mem_ctrl.dram.perBankRdBursts::13           19                       # Per bank write bursts (Count)
system.mem_ctrl.dram.perBankRdBursts::14           39                       # Per bank write bursts (Count)
system.mem_ctrl.dram.perBankRdBursts::15           49                       # Per bank write bursts (Count)
system.mem_ctrl.dram.perBankWrBursts::0             0                       # Per bank write bursts (Count)
system.mem_ctrl.dram.perBankWrBursts::1             0                       # Per bank write bursts (Count)
system.mem_ctrl.dram.perBankWrBursts::2             0                       # Per bank write bursts (Count)
system.mem_ctrl.dram.perBankWrBursts::3             0                       # Per bank write bursts (Count)
system.mem_ctrl.dram.perBankWrBursts::4             0                       # Per bank write bursts (Count)
system.mem_ctrl.dram.perBankWrBursts::5             0                       # Per bank write bursts (Count)
system.mem_ctrl.dram.perBankWrBursts::6             0                       # Per bank write bursts (Count)
system.mem_ctrl.dram.perBankWrBursts::7             0                       # Per bank write bursts (Count)
system.mem_ctrl.dram.perBankWrBursts::8             0                       # Per bank write bursts (Count)
system.mem_ctrl.dram.perBankWrBursts::9             0                       # Per bank write bursts (Count)
system.mem_ctrl.dram.perBankWrBursts::10            0                       # Per bank write bursts (Count)
system.mem_ctrl.dram.perBankWrBursts::11            0                       # Per bank write bursts (Count)
system.mem_ctrl.dram.perBankWrBursts::12            0                       # Per bank write bursts (Count)
system.mem_ctrl.dram.perBankWrBursts::13            0                       # Per bank write bursts (Count)
system.mem_ctrl.dram.perBankWrBursts::14            0                       # Per bank write bursts (Count)
system.mem_ctrl.dram.perBankWrBursts::15            0                       # Per bank write bursts (Count)
system.mem_ctrl.dram.totQLat                  7512250                       # Total ticks spent queuing (Tick)
system.mem_ctrl.dram.totBusLat                4525000                       # Total ticks spent in databus transfers (Tick)
system.mem_ctrl.dram.totMemAccLat            24481000                       # Total ticks spent from burst creation until serviced by the DRAM (Tick)
system.mem_ctrl.dram.avgQLat                  8300.83                       # Average queueing delay per DRAM burst ((Tick/Count))
system.mem_ctrl.dram.avgBusLat                5000.00                       # Average bus latency per DRAM burst ((Tick/Count))
system.mem_ctrl.dram.avgMemAccLat            27050.83                       # Average memory access latency per DRAM burst ((Tick/Count))
system.mem_ctrl.dram.readRowHits                  725                       # Number of row buffer hits during reads (Count)
system.mem_ctrl.dram.writeRowHits                   0                       # Number of row buffer hits during writes (Count)
system.mem_ctrl.dram.readRowHitRate             80.11                       # Row buffer hit rate for reads (Ratio)
system.mem_ctrl.dram.writeRowHitRate              nan                       # Row buffer hit rate for writes (Ratio)
system.mem_ctrl.dram.bytesPerActivate::samples          170                       # Bytes accessed per row activation (Byte)
system.mem_ctrl.dram.bytesPerActivate::mean   325.270588                       # Bytes accessed per row activation (Byte)
system.mem_ctrl.dram.bytesPerActivate::gmean   195.858574                       # Bytes accessed per row activation (Byte)
system.mem_ctrl.dram.bytesPerActivate::stdev   330.134324                       # Bytes accessed per row activation (Byte)
system.mem_ctrl.dram.bytesPerActivate::0-127           56     32.94%     32.94% # Bytes accessed per row activation (Byte)
system.mem_ctrl.dram.bytesPerActivate::128-255           43     25.29%     58.24% # Bytes accessed per row activation (Byte)
system.mem_ctrl.dram.bytesPerActivate::256-383           19     11.18%     69.41% # Bytes accessed per row activation (Byte)
system.mem_ctrl.dram.bytesPerActivate::384-511           11      6.47%     75.88% # Bytes accessed per row activation (Byte)
system.mem_ctrl.dram.bytesPerActivate::512-639            5      2.94%     78.82% # Bytes accessed per row activation (Byte)
system.mem_ctrl.dram.bytesPerActivate::640-767            7      4.12%     82.94% # Bytes accessed per row activation (Byte)
system.mem_ctrl.dram.bytesPerActivate::768-895            6      3.53%     86.47% # Bytes accessed per row activation (Byte)
system.mem_ctrl.dram.bytesPerActivate::896-1023            5      2.94%     89.41% # Bytes accessed per row activation (Byte)
system.mem_ctrl.dram.bytesPerActivate::1024-1151           18     10.59%    100.00% # Bytes accessed per row activation (Byte)
system.mem_ctrl.dram.bytesPerActivate::total          170                       # Bytes accessed per row activation (Byte)
system.mem_ctrl.dram.bytesRead                  57920                       # Total number of bytes read from DRAM (Byte)
system.mem_ctrl.dram.bytesWritten                   0                       # Total number of bytes written to DRAM (Byte)
system.mem_ctrl.dram.avgRdBW               124.211881                       # Average DRAM read bandwidth in MiBytes/s ((Byte/Second))
system.mem_ctrl.dram.avgWrBW                        0                       # Average DRAM write bandwidth in MiBytes/s ((Byte/Second))
system.mem_ctrl.dram.peakBW                  12800.00                       # Theoretical peak bandwidth in MiByte/s ((Byte/Second))
system.mem_ctrl.dram.busUtil                     0.97                       # Data bus utilization in percentage (Ratio)
system.mem_ctrl.dram.busUtilRead                 0.97                       # Data bus utilization in percentage for reads (Ratio)
system.mem_ctrl.dram.busUtilWrite                0.00                       # Data bus utilization in percentage for writes (Ratio)
system.mem_ctrl.dram.pageHitRate                80.11                       # Row buffer hit rate, read and write combined (Ratio)
system.mem_ctrl.dram.power_state.pwrStateResidencyTicks::UNDEFINED    466300000                       # Cumulative time (in ticks) in various power states (Tick)
system.mem_ctrl.dram.rank0.actEnergy           892500                       # Energy for activate commands per rank (pJ) (Joule)
system.mem_ctrl.dram.rank0.preEnergy           455400                       # Energy for precharge commands per rank (pJ) (Joule)
system.mem_ctrl.dram.rank0.readEnergy         3762780                       # Energy for read commands per rank (pJ) (Joule)
system.mem_ctrl.dram.rank0.writeEnergy              0                       # Energy for write commands per rank (pJ) (Joule)
system.mem_ctrl.dram.rank0.refreshEnergy 36263760.000000                       # Energy for refresh commands per rank (pJ) (Joule)
system.mem_ctrl.dram.rank0.actBackEnergy     45649590                       # Energy for active background per rank (pJ) (Joule)
system.mem_ctrl.dram.rank0.preBackEnergy    140617440                       # Energy for precharge background per rank (pJ) (Joule)
system.mem_ctrl.dram.rank0.actPowerDownEnergy            0                       # Energy for active power-down per rank (pJ) (Joule)
system.mem_ctrl.dram.rank0.prePowerDownEnergy            0                       # Energy for precharge power-down per rank (pJ) (Joule)
system.mem_ctrl.dram.rank0.selfRefreshEnergy            0                       # Energy for self refresh per rank (pJ) (Joule)
system.mem_ctrl.dram.rank0.totalEnergy      227641470                       # Total energy per rank (pJ) (Joule)
system.mem_ctrl.dram.rank0.averagePower    488.186725                       # Core power per rank (mW) (Watt)
system.mem_ctrl.dram.rank0.totalIdleTime            0                       # Total Idle time Per DRAM Rank (Tick)
system.mem_ctrl.dram.rank0.pwrStateTime::IDLE    365194750                       # Time in different power states (Tick)
system.mem_ctrl.dram.rank0.pwrStateTime::REF     15340000                       # Time in different power states (Tick)
system.mem_ctrl.dram.rank0.pwrStateTime::SREF            0                       # Time in different power states (Tick)
system.mem_ctrl.dram.rank0.pwrStateTime::PRE_PDN            0                       # Time in different power states (Tick)
system.mem_ctrl.dram.rank0.pwrStateTime::ACT     85765250                       # Time in different power states (Tick)
system.mem_ctrl.dram.rank0.pwrStateTime::ACT_PDN            0                       # Time in different power states (Tick)
system.mem_ctrl.dram.rank1.actEnergy           392700                       # Energy for activate commands per rank (pJ) (Joule)
system.mem_ctrl.dram.rank1.preEnergy           189750                       # Energy for precharge commands per rank (pJ) (Joule)
system.mem_ctrl.dram.rank1.readEnergy         2698920                       # Energy for read commands per rank (pJ) (Joule)
system.mem_ctrl.dram.rank1.writeEnergy              0                       # Energy for write commands per rank (pJ) (Joule)
system.mem_ctrl.dram.rank1.refreshEnergy 36263760.000000                       # Energy for refresh commands per rank (pJ) (Joule)
system.mem_ctrl.dram.rank1.actBackEnergy     34732380                       # Energy for active background per rank (pJ) (Joule)
system.mem_ctrl.dram.rank1.preBackEnergy    149810880                       # Energy for precharge background per rank (pJ) (Joule)
system.mem_ctrl.dram.rank1.actPowerDownEnergy            0                       # Energy for active power-down per rank (pJ) (Joule)
system.mem_ctrl.dram.rank1.prePowerDownEnergy            0                       # Energy for precharge power-down per rank (pJ) (Joule)
system.mem_ctrl.dram.rank1.selfRefreshEnergy            0                       # Energy for self refresh per rank (pJ) (Joule)
system.mem_ctrl.dram.rank1.totalEnergy      224088390                       # Total energy per rank (pJ) (Joule)
system.mem_ctrl.dram.rank1.averagePower    480.566995                       # Core power per rank (mW) (Watt)
system.mem_ctrl.dram.rank1.totalIdleTime            0                       # Total Idle time Per DRAM Rank (Tick)
system.mem_ctrl.dram.rank1.pwrStateTime::IDLE    389154750                       # Time in different power states (Tick)
system.mem_ctrl.dram.rank1.pwrStateTime::REF     15340000                       # Time in different power states (Tick)
system.mem_ctrl.dram.rank1.pwrStateTime::SREF            0                       # Time in different power states (Tick)
system.mem_ctrl.dram.rank1.pwrStateTime::PRE_PDN            0                       # Time in different power states (Tick)
system.mem_ctrl.dram.rank1.pwrStateTime::ACT     61805250                       # Time in different power states (Tick)
system.mem_ctrl.dram.rank1.pwrStateTime::ACT_PDN            0                       # Time in different power states (Tick)
system.mem_ctrl.power_state.pwrStateResidencyTicks::UNDEFINED    466300000                       # Cumulative time (in ticks) in various power states (Tick)
system.membus.transDist::ReadResp                 648                       # Transaction distribution (Count)
system.membus.transDist::ReadExReq                257                       # Transaction distribution (Count)
system.membus.transDist::ReadExResp               257                       # Transaction distribution (Count)
system.membus.transDist::ReadSharedReq            648                       # Transaction distribution (Count)
system.membus.pktCount_system.l2cache.mem_side_port::system.mem_ctrl.port         1810                       # Packet count per connected requestor and responder (Count)
system.membus.pktCount_system.l2cache.mem_side_port::total         1810                       # Packet count per connected requestor and responder (Count)
system.membus.pktCount::total                    1810                       # Packet count per connected requestor and responder (Count)
system.membus.pktSize_system.l2cache.mem_side_port::system.mem_ctrl.port        57920                       # Cumulative packet size per connected requestor and responder (Byte)
system.membus.pktSize_system.l2cache.mem_side_port::total        57920                       # Cumulative packet size per connected requestor and responder (Byte)
system.membus.pktSize::total                    57920                       # Cumulative packet size per connected requestor and responder (Byte)
system.membus.snoops                                0                       # Total snoops (Count)
system.membus.snoopTraffic                          0                       # Total snoop traffic (Byte)
system.membus.snoopFanout::samples                905                       # Request fanout histogram (Count)
system.membus.snoopFanout::mean                     0                       # Request fanout histogram (Count)
system.membus.snoopFanout::stdev                    0                       # Request fanout histogram (Count)
system.membus.snoopFanout::underflows               0      0.00%      0.00% # Request fanout histogram (Count)
system.membus.snoopFanout::0                      905    100.00%    100.00% # Request fanout histogram (Count)
system.membus.snoopFanout::1                        0      0.00%    100.00% # Request fanout histogram (Count)
system.membus.snoopFanout::overflows                0      0.00%    100.00% # Request fanout histogram (Count)
system.membus.snoopFanout::min_value                0                       # Request fanout histogram (Count)
system.membus.snoopFanout::max_value                0                       # Request fanout histogram (Count)
system.membus.snoopFanout::total                  905                       # Request fanout histogram (Count)
system.membus.power_state.pwrStateResidencyTicks::UNDEFINED    466300000                       # Cumulative time (in ticks) in various power states (Tick)
system.membus.reqLayer2.occupancy              905000                       # Layer occupancy (ticks) (Tick)
system.membus.reqLayer2.utilization               0.0                       # Layer utilization (Ratio)
system.membus.respLayer0.occupancy            4794750                       # Layer occupancy (ticks) (Tick)
system.membus.respLayer0.utilization              0.0                       # Layer utilization (Ratio)
system.membus.snoop_filter.totRequests            905                       # Total number of requests made to the snoop filter. (Count)
system.membus.snoop_filter.hitSingleRequests            0                       # Number of requests hitting in the snoop filter with a single holder of the requested data. (Count)
system.membus.snoop_filter.hitMultiRequests            0                       # Number of requests hitting in the snoop filter with multiple (>1) holders of the requested data. (Count)
system.membus.snoop_filter.totSnoops                0                       # Total number of snoops made to the snoop filter. (Count)
system.membus.snoop_filter.hitSingleSnoops            0                       # Number of snoops hitting in the snoop filter with a single holder of the requested data. (Count)
system.membus.snoop_filter.hitMultiSnoops            0                       # Number of snoops hitting in the snoop filter with multiple (>1) holders of the requested data. (Count)
system.workload.inst.arm                            0                       # number of arm instructions executed (Count)
system.workload.inst.quiesce                        0                       # number of quiesce instructions executed (Count)

---------- End Simulation Statistics   ----------
