
---------- Begin Simulation Statistics ----------
simSeconds                                   0.016345                       # Number of seconds simulated (Second)
simTicks                                  16344905000                       # Number of ticks simulated (Tick)
finalTick                                 16344905000                       # Number of ticks from beginning of simulation (restored from checkpoints and never reset) (Tick)
simFreq                                  1000000000000                       # The number of ticks per simulated second ((Tick/Second))
hostSeconds                                     82.92                       # Real time elapsed on the host (Second)
hostTickRate                                197117874                       # The number of ticks simulated per host second (ticks/s) ((Tick/Second))
hostMemory                                     634632                       # Number of bytes of host memory used (Byte)
simInsts                                      3640848                       # Number of instructions simulated (Count)
simOps                                        5708258                       # Number of ops (including micro ops) simulated (Count)
hostInstRate                                    43908                       # Simulator instruction rate (inst/s) ((Count/Second))
hostOpRate                                      68841                       # Simulator op (including micro ops) rate (op/s) ((Count/Second))
system.clk_domain.clock                          1000                       # Clock period in ticks (Tick)
system.clk_domain.voltage_domain.voltage            1                       # Voltage in Volts (Volt)
system.cpu.numCycles                         16344906                       # Number of cpu cycles simulated (Cycle)
system.cpu.numWorkItemsStarted                      0                       # Number of work items this cpu started (Count)
system.cpu.numWorkItemsCompleted                    0                       # Number of work items this cpu completed (Count)
system.cpu.instsAdded                        16765846                       # Number of instructions added to the IQ (excludes non-spec) (Count)
system.cpu.nonSpecInstsAdded                       64                       # Number of non-speculative instructions added to the IQ (Count)
system.cpu.instsIssued                       11216921                       # Number of instructions issued (Count)
system.cpu.squashedInstsIssued                    946                       # Number of squashed instructions issued (Count)
system.cpu.squashedInstsExamined             11057638                       # Number of squashed instructions iterated over during squash; mainly for profiling (Count)
system.cpu.squashedOperandsExamined          18712135                       # Number of squashed operands that are examined and possibly removed from graph (Count)
system.cpu.squashedNonSpecRemoved                  46                       # Number of squashed non-spec instructions that were removed (Count)
system.cpu.numIssuedDist::samples            16322624                       # Number of insts issued each cycle (Count)
system.cpu.numIssuedDist::mean               0.687201                       # Number of insts issued each cycle (Count)
system.cpu.numIssuedDist::stdev              1.366657                       # Number of insts issued each cycle (Count)
system.cpu.numIssuedDist::underflows                0      0.00%      0.00% # Number of insts issued each cycle (Count)
system.cpu.numIssuedDist::0                  11759176     72.04%     72.04% # Number of insts issued each cycle (Count)
system.cpu.numIssuedDist::1                   1617159      9.91%     81.95% # Number of insts issued each cycle (Count)
system.cpu.numIssuedDist::2                   1228502      7.53%     89.48% # Number of insts issued each cycle (Count)
system.cpu.numIssuedDist::3                    569311      3.49%     92.96% # Number of insts issued each cycle (Count)
system.cpu.numIssuedDist::4                    547771      3.36%     96.32% # Number of insts issued each cycle (Count)
system.cpu.numIssuedDist::5                    414509      2.54%     98.86% # Number of insts issued each cycle (Count)
system.cpu.numIssuedDist::6                    135949      0.83%     99.69% # Number of insts issued each cycle (Count)
system.cpu.numIssuedDist::7                     46474      0.28%     99.98% # Number of insts issued each cycle (Count)
system.cpu.numIssuedDist::8                      3773      0.02%    100.00% # Number of insts issued each cycle (Count)
system.cpu.numIssuedDist::overflows                 0      0.00%    100.00% # Number of insts issued each cycle (Count)
system.cpu.numIssuedDist::min_value                 0                       # Number of insts issued each cycle (Count)
system.cpu.numIssuedDist::max_value                 8                       # Number of insts issued each cycle (Count)
system.cpu.numIssuedDist::total              16322624                       # Number of insts issued each cycle (Count)
system.cpu.statFuBusy::No_OpClass                   0      0.00%      0.00% # attempts to use FU when none available (Count)
system.cpu.statFuBusy::IntAlu                    7165     97.02%     97.02% # attempts to use FU when none available (Count)
system.cpu.statFuBusy::IntMult                      0      0.00%     97.02% # attempts to use FU when none available (Count)
system.cpu.statFuBusy::IntDiv                       0      0.00%     97.02% # attempts to use FU when none available (Count)
system.cpu.statFuBusy::FloatAdd                     0      0.00%     97.02% # attempts to use FU when none available (Count)
system.cpu.statFuBusy::FloatCmp                     0      0.00%     97.02% # attempts to use FU when none available (Count)
system.cpu.statFuBusy::FloatCvt                     0      0.00%     97.02% # attempts to use FU when none available (Count)
system.cpu.statFuBusy::FloatMult                    0      0.00%     97.02% # attempts to use FU when none available (Count)
system.cpu.statFuBusy::FloatMultAcc                 0      0.00%     97.02% # attempts to use FU when none available (Count)
system.cpu.statFuBusy::FloatDiv                     0      0.00%     97.02% # attempts to use FU when none available (Count)
system.cpu.statFuBusy::FloatMisc                    0      0.00%     97.02% # attempts to use FU when none available (Count)
system.cpu.statFuBusy::FloatSqrt                    0      0.00%     97.02% # attempts to use FU when none available (Count)
system.cpu.statFuBusy::SimdAdd                    127      1.72%     98.74% # attempts to use FU when none available (Count)
system.cpu.statFuBusy::SimdAddAcc                   0      0.00%     98.74% # attempts to use FU when none available (Count)
system.cpu.statFuBusy::SimdAlu                     10      0.14%     98.88% # attempts to use FU when none available (Count)
system.cpu.statFuBusy::SimdCmp                      0      0.00%     98.88% # attempts to use FU when none available (Count)
system.cpu.statFuBusy::SimdCvt                      1      0.01%     98.89% # attempts to use FU when none available (Count)
system.cpu.statFuBusy::SimdMisc                     2      0.03%     98.92% # attempts to use FU when none available (Count)
system.cpu.statFuBusy::SimdMult                     0      0.00%     98.92% # attempts to use FU when none available (Count)
system.cpu.statFuBusy::SimdMultAcc                  0      0.00%     98.92% # attempts to use FU when none available (Count)
system.cpu.statFuBusy::SimdShift                    0      0.00%     98.92% # attempts to use FU when none available (Count)
system.cpu.statFuBusy::SimdShiftAcc                 0      0.00%     98.92% # attempts to use FU when none available (Count)
system.cpu.statFuBusy::SimdDiv                      0      0.00%     98.92% # attempts to use FU when none available (Count)
system.cpu.statFuBusy::SimdSqrt                     0      0.00%     98.92% # attempts to use FU when none available (Count)
system.cpu.statFuBusy::SimdFloatAdd                 0      0.00%     98.92% # attempts to use FU when none available (Count)
system.cpu.statFuBusy::SimdFloatAlu                 0      0.00%     98.92% # attempts to use FU when none available (Count)
system.cpu.statFuBusy::SimdFloatCmp                 0      0.00%     98.92% # attempts to use FU when none available (Count)
system.cpu.statFuBusy::SimdFloatCvt                 0      0.00%     98.92% # attempts to use FU when none available (Count)
system.cpu.statFuBusy::SimdFloatDiv                 0      0.00%     98.92% # attempts to use FU when none available (Count)
system.cpu.statFuBusy::SimdFloatMisc                0      0.00%     98.92% # attempts to use FU when none available (Count)
system.cpu.statFuBusy::SimdFloatMult                0      0.00%     98.92% # attempts to use FU when none available (Count)
system.cpu.statFuBusy::SimdFloatMultAcc             0      0.00%     98.92% # attempts to use FU when none available (Count)
system.cpu.statFuBusy::SimdFloatSqrt                0      0.00%     98.92% # attempts to use FU when none available (Count)
system.cpu.statFuBusy::SimdReduceAdd                0      0.00%     98.92% # attempts to use FU when none available (Count)
system.cpu.statFuBusy::SimdReduceAlu                0      0.00%     98.92% # attempts to use FU when none available (Count)
system.cpu.statFuBusy::SimdReduceCmp                0      0.00%     98.92% # attempts to use FU when none available (Count)
system.cpu.statFuBusy::SimdFloatReduceAdd            0      0.00%     98.92% # attempts to use FU when none available (Count)
system.cpu.statFuBusy::SimdFloatReduceCmp            0      0.00%     98.92% # attempts to use FU when none available (Count)
system.cpu.statFuBusy::SimdAes                      0      0.00%     98.92% # attempts to use FU when none available (Count)
system.cpu.statFuBusy::SimdAesMix                   0      0.00%     98.92% # attempts to use FU when none available (Count)
system.cpu.statFuBusy::SimdSha1Hash                 0      0.00%     98.92% # attempts to use FU when none available (Count)
system.cpu.statFuBusy::SimdSha1Hash2                0      0.00%     98.92% # attempts to use FU when none available (Count)
system.cpu.statFuBusy::SimdSha256Hash               0      0.00%     98.92% # attempts to use FU when none available (Count)
system.cpu.statFuBusy::SimdSha256Hash2              0      0.00%     98.92% # attempts to use FU when none available (Count)
system.cpu.statFuBusy::SimdShaSigma2                0      0.00%     98.92% # attempts to use FU when none available (Count)
system.cpu.statFuBusy::SimdShaSigma3                0      0.00%     98.92% # attempts to use FU when none available (Count)
system.cpu.statFuBusy::SimdPredAlu                  0      0.00%     98.92% # attempts to use FU when none available (Count)
system.cpu.statFuBusy::MemRead                     38      0.51%     99.43% # attempts to use FU when none available (Count)
system.cpu.statFuBusy::MemWrite                    22      0.30%     99.73% # attempts to use FU when none available (Count)
system.cpu.statFuBusy::FloatMemRead                 9      0.12%     99.85% # attempts to use FU when none available (Count)
system.cpu.statFuBusy::FloatMemWrite               11      0.15%    100.00% # attempts to use FU when none available (Count)
system.cpu.statFuBusy::IprAccess                    0      0.00%    100.00% # attempts to use FU when none available (Count)
system.cpu.statFuBusy::InstPrefetch                 0      0.00%    100.00% # attempts to use FU when none available (Count)
system.cpu.statIssuedInstType_0::No_OpClass        16516      0.15%      0.15% # Number of instructions issued per FU type, per thread (Count)
system.cpu.statIssuedInstType_0::IntAlu       9115187     81.26%     81.41% # Number of instructions issued per FU type, per thread (Count)
system.cpu.statIssuedInstType_0::IntMult          571      0.01%     81.42% # Number of instructions issued per FU type, per thread (Count)
system.cpu.statIssuedInstType_0::IntDiv            21      0.00%     81.42% # Number of instructions issued per FU type, per thread (Count)
system.cpu.statIssuedInstType_0::FloatAdd          142      0.00%     81.42% # Number of instructions issued per FU type, per thread (Count)
system.cpu.statIssuedInstType_0::FloatCmp            0      0.00%     81.42% # Number of instructions issued per FU type, per thread (Count)
system.cpu.statIssuedInstType_0::FloatCvt            0      0.00%     81.42% # Number of instructions issued per FU type, per thread (Count)
system.cpu.statIssuedInstType_0::FloatMult            0      0.00%     81.42% # Number of instructions issued per FU type, per thread (Count)
system.cpu.statIssuedInstType_0::FloatMultAcc            0      0.00%     81.42% # Number of instructions issued per FU type, per thread (Count)
system.cpu.statIssuedInstType_0::FloatDiv            0      0.00%     81.42% # Number of instructions issued per FU type, per thread (Count)
system.cpu.statIssuedInstType_0::FloatMisc            0      0.00%     81.42% # Number of instructions issued per FU type, per thread (Count)
system.cpu.statIssuedInstType_0::FloatSqrt            0      0.00%     81.42% # Number of instructions issued per FU type, per thread (Count)
system.cpu.statIssuedInstType_0::SimdAdd        69613      0.62%     82.04% # Number of instructions issued per FU type, per thread (Count)
system.cpu.statIssuedInstType_0::SimdAddAcc            0      0.00%     82.04% # Number of instructions issued per FU type, per thread (Count)
system.cpu.statIssuedInstType_0::SimdAlu          152      0.00%     82.04% # Number of instructions issued per FU type, per thread (Count)
system.cpu.statIssuedInstType_0::SimdCmp            0      0.00%     82.04% # Number of instructions issued per FU type, per thread (Count)
system.cpu.statIssuedInstType_0::SimdCvt           52      0.00%     82.04% # Number of instructions issued per FU type, per thread (Count)
system.cpu.statIssuedInstType_0::SimdMisc          240      0.00%     82.04% # Number of instructions issued per FU type, per thread (Count)
system.cpu.statIssuedInstType_0::SimdMult            0      0.00%     82.04% # Number of instructions issued per FU type, per thread (Count)
system.cpu.statIssuedInstType_0::SimdMultAcc            0      0.00%     82.04% # Number of instructions issued per FU type, per thread (Count)
system.cpu.statIssuedInstType_0::SimdShift            0      0.00%     82.04% # Number of instructions issued per FU type, per thread (Count)
system.cpu.statIssuedInstType_0::SimdShiftAcc            0      0.00%     82.04% # Number of instructions issued per FU type, per thread (Count)
system.cpu.statIssuedInstType_0::SimdDiv            0      0.00%     82.04% # Number of instructions issued per FU type, per thread (Count)
system.cpu.statIssuedInstType_0::SimdSqrt            0      0.00%     82.04% # Number of instructions issued per FU type, per thread (Count)
system.cpu.statIssuedInstType_0::SimdFloatAdd            0      0.00%     82.04% # Number of instructions issued per FU type, per thread (Count)
system.cpu.statIssuedInstType_0::SimdFloatAlu            0      0.00%     82.04% # Number of instructions issued per FU type, per thread (Count)
system.cpu.statIssuedInstType_0::SimdFloatCmp            0      0.00%     82.04% # Number of instructions issued per FU type, per thread (Count)
system.cpu.statIssuedInstType_0::SimdFloatCvt           21      0.00%     82.04% # Number of instructions issued per FU type, per thread (Count)
system.cpu.statIssuedInstType_0::SimdFloatDiv            0      0.00%     82.04% # Number of instructions issued per FU type, per thread (Count)
system.cpu.statIssuedInstType_0::SimdFloatMisc            0      0.00%     82.04% # Number of instructions issued per FU type, per thread (Count)
system.cpu.statIssuedInstType_0::SimdFloatMult           23      0.00%     82.04% # Number of instructions issued per FU type, per thread (Count)
system.cpu.statIssuedInstType_0::SimdFloatMultAcc            0      0.00%     82.04% # Number of instructions issued per FU type, per thread (Count)
system.cpu.statIssuedInstType_0::SimdFloatSqrt            0      0.00%     82.04% # Number of instructions issued per FU type, per thread (Count)
system.cpu.statIssuedInstType_0::SimdReduceAdd            0      0.00%     82.04% # Number of instructions issued per FU type, per thread (Count)
system.cpu.statIssuedInstType_0::SimdReduceAlu            0      0.00%     82.04% # Number of instructions issued per FU type, per thread (Count)
system.cpu.statIssuedInstType_0::SimdReduceCmp            0      0.00%     82.04% # Number of instructions issued per FU type, per thread (Count)
system.cpu.statIssuedInstType_0::SimdFloatReduceAdd            0      0.00%     82.04% # Number of instructions issued per FU type, per thread (Count)
system.cpu.statIssuedInstType_0::SimdFloatReduceCmp            0      0.00%     82.04% # Number of instructions issued per FU type, per thread (Count)
system.cpu.statIssuedInstType_0::SimdAes            0      0.00%     82.04% # Number of instructions issued per FU type, per thread (Count)
system.cpu.statIssuedInstType_0::SimdAesMix            0      0.00%     82.04% # Number of instructions issued per FU type, per thread (Count)
system.cpu.statIssuedInstType_0::SimdSha1Hash            0      0.00%     82.04% # Number of instructions issued per FU type, per thread (Count)
system.cpu.statIssuedInstType_0::SimdSha1Hash2            0      0.00%     82.04% # Number of instructions issued per FU type, per thread (Count)
system.cpu.statIssuedInstType_0::SimdSha256Hash            0      0.00%     82.04% # Number of instructions issued per FU type, per thread (Count)
system.cpu.statIssuedInstType_0::SimdSha256Hash2            0      0.00%     82.04% # Number of instructions issued per FU type, per thread (Count)
system.cpu.statIssuedInstType_0::SimdShaSigma2            0      0.00%     82.04% # Number of instructions issued per FU type, per thread (Count)
system.cpu.statIssuedInstType_0::SimdShaSigma3            0      0.00%     82.04% # Number of instructions issued per FU type, per thread (Count)
system.cpu.statIssuedInstType_0::SimdPredAlu            0      0.00%     82.04% # Number of instructions issued per FU type, per thread (Count)
system.cpu.statIssuedInstType_0::MemRead      1151171     10.26%     92.30% # Number of instructions issued per FU type, per thread (Count)
system.cpu.statIssuedInstType_0::MemWrite       792776      7.07%     99.37% # Number of instructions issued per FU type, per thread (Count)
system.cpu.statIssuedInstType_0::FloatMemRead          139      0.00%     99.37% # Number of instructions issued per FU type, per thread (Count)
system.cpu.statIssuedInstType_0::FloatMemWrite        70297      0.63%    100.00% # Number of instructions issued per FU type, per thread (Count)
system.cpu.statIssuedInstType_0::IprAccess            0      0.00%    100.00% # Number of instructions issued per FU type, per thread (Count)
system.cpu.statIssuedInstType_0::InstPrefetch            0      0.00%    100.00% # Number of instructions issued per FU type, per thread (Count)
system.cpu.statIssuedInstType_0::total       11216921                       # Number of instructions issued per FU type, per thread (Count)
system.cpu.issueRate                         0.686264                       # Inst issue rate ((Count/Cycle))
system.cpu.fuBusy                                7385                       # FU busy when requested (Count)
system.cpu.fuBusyRate                        0.000658                       # FU busy rate (busy events/executed inst) ((Count/Count))
system.cpu.intInstQueueReads                 38361141                       # Number of integer instruction queue reads (Count)
system.cpu.intInstQueueWrites                27609607                       # Number of integer instruction queue writes (Count)
system.cpu.intInstQueueWakeupAccesses        10803917                       # Number of integer instruction queue wakeup accesses (Count)
system.cpu.fpInstQueueReads                    403650                       # Number of floating instruction queue reads (Count)
system.cpu.fpInstQueueWrites                   213975                       # Number of floating instruction queue writes (Count)
system.cpu.fpInstQueueWakeupAccesses           197732                       # Number of floating instruction queue wakeup accesses (Count)
system.cpu.vecInstQueueReads                        0                       # Number of vector instruction queue reads (Count)
system.cpu.vecInstQueueWrites                       0                       # Number of vector instruction queue writes (Count)
system.cpu.vecInstQueueWakeupAccesses               0                       # Number of vector instruction queue wakeup accesses (Count)
system.cpu.intAluAccesses                    11005887                       # Number of integer alu accesses (Count)
system.cpu.fpAluAccesses                       201903                       # Number of floating point alu accesses (Count)
system.cpu.vecAluAccesses                           0                       # Number of vector alu accesses (Count)
system.cpu.idleCycles                               0                       # Number of cycles IEW is idle (Cycle)
system.cpu.squashCycles                        114481                       # Number of cycles IEW is squashing (Cycle)
system.cpu.blockCycles                        9422653                       # Number of cycles IEW is blocking (Cycle)
system.cpu.unblockCycles                       512053                       # Number of cycles IEW is unblocking (Cycle)
system.cpu.dispatchedInsts                   16765910                       # Number of instructions dispatched to IQ (Count)
system.cpu.dispSquashedInsts                    12622                       # Number of squashed instructions skipped by dispatch (Count)
system.cpu.dispLoadInsts                      2003509                       # Number of dispatched load instructions (Count)
system.cpu.dispStoreInsts                     1990021                       # Number of dispatched store instructions (Count)
system.cpu.dispNonSpecInsts                        23                       # Number of dispatched non-speculative instructions (Count)
system.cpu.iqFullEvents                         61384                       # Number of times the IQ has become full, causing a stall (Count)
system.cpu.lsqFullEvents                       331162                       # Number of times the LSQ has become full, causing a stall (Count)
system.cpu.memOrderViolationEvents                 34                       # Number of memory order violations (Count)
system.cpu.predictedTakenIncorrect              19256                       # Number of branches that were predicted taken incorrectly (Count)
system.cpu.predictedNotTakenIncorrect           10060                       # Number of branches that were predicted not taken incorrectly (Count)
system.cpu.branchMispredicts                    29316                       # Number of branch mispredicts detected at execute (Count)
system.cpu.numInsts                          11039882                       # Number of executed instructions (Count)
system.cpu.loadInsts                           912547                       # Number of load instructions executed (Count)
system.cpu.numSquashedInsts                    177033                       # Number of squashed instructions skipped in execute (Count)
system.cpu.numSwp                                   0                       # Number of swp insts executed (Count)
system.cpu.numNop                                   0                       # Number of nop insts executed (Count)
system.cpu.numRefs                            1922016                       # Number of memory reference insts executed (Count)
system.cpu.numBranches                         716347                       # Number of branches executed (Count)
system.cpu.numStoreInsts                      1009469                       # Number of stores executed (Count)
system.cpu.numRate                           0.675433                       # Inst execution rate ((Count/Cycle))
system.cpu.loadsRA                             235725                       # Number of load instructions executed in runahead mode (Count)
system.cpu.instsToCommit                     11010311                       # Cumulative count of insts sent to commit (Count)
system.cpu.writebackCount                    11001649                       # Cumulative count of insts written-back (Count)
system.cpu.producerInst                       9214492                       # Number of instructions producing a value (Count)
system.cpu.consumerInst                      18776244                       # Number of instructions consuming a value (Count)
system.cpu.wbRate                            0.673093                       # Insts written-back per cycle ((Count/Cycle))
system.cpu.wbFanout                          0.490753                       # Average fanout of values written-back ((Count/Count))
system.cpu.timesIdled                             316                       # Number of times that the entire CPU went into an idle state and unscheduled itself (Count)
system.cpu.idleCycles                           22282                       # Total number of cycles that the CPU has spent unscheduled due to idling (Cycle)
system.cpu.committedInsts                     3640848                       # Number of Instructions Simulated (Count)
system.cpu.committedOps                       5708258                       # Number of Ops (including micro ops) Simulated (Count)
system.cpu.cpi                               4.489313                       # CPI: Cycles Per Instruction ((Cycle/Count))
system.cpu.totalCpi                          4.489313                       # CPI: Total CPI of All Threads ((Cycle/Count))
system.cpu.ipc                               0.222751                       # IPC: Instructions Per Cycle ((Count/Cycle))
system.cpu.totalIpc                          0.222751                       # IPC: Total IPC of All Threads ((Count/Cycle))
system.cpu.intRegfileReads                   17053848                       # Number of integer regfile reads (Count)
system.cpu.intRegfileWrites                   9372600                       # Number of integer regfile writes (Count)
system.cpu.fpRegfileReads                      402117                       # Number of floating regfile reads (Count)
system.cpu.fpRegfileWrites                     131329                       # Number of floating regfile writes (Count)
system.cpu.ccRegfileReads                     6125477                       # number of cc regfile reads (Count)
system.cpu.ccRegfileWrites                    7288467                       # number of cc regfile writes (Count)
system.cpu.miscRegfileReads                   3379220                       # number of misc regfile reads (Count)
system.cpu.robFull                                924                       # Number of times that the ROB becomes full (Count)
system.cpu.enterRA                              88353                       # Number of times the CPU enters runahead (Count)
system.cpu.fetchedRA                          4574468                       # Number of instructions fetched in runahead mode. (Count)
system.cpu.totalCyclesRA                      9466794                       # total number of cycles the CPU spends in runahead (Cycle)
system.cpu.cyclesAvgRA                        107.147                       # average number of cycles the CPU spends in runahead ((Cycle/Count))
system.cpu.cyclesRobEmptyRA                   4255447                       # total number of cycles when ROB would be empty in runahead (Cycle)
system.cpu.pctRobEmptyRA                       44.951                       # percentage of cycles spent in runahead, when ROB would be empty (Ratio)
system.cpu.totalInsertedRA                    2841855                       # total number of instructions inserted into ROB in runahead (Count)
system.cpu.insertedAvgRA                       32.165                       # average number of instructions inserted into ROB in runahead (Ratio)
system.cpu.maxAtRobHd                             469                       # maximum number of cycles one instruction spends at the head of ROB in runahead (Count)
system.cpu.totalDecodedRA                     2704896                       # total number of instructions decoded in runahead (Count)
system.cpu.decodedAvgRA                        30.615                       # average number of instructions decoded in runahead (Ratio)
system.cpu.MemDepUnit__0.insertedLoads        2003509                       # Number of loads inserted to the mem dependence unit. (Count)
system.cpu.MemDepUnit__0.insertedStores       1990021                       # Number of stores inserted to the mem dependence unit. (Count)
system.cpu.MemDepUnit__0.conflictingLoads      1036606                       # Number of conflicting loads. (Count)
system.cpu.MemDepUnit__0.conflictingStores       959330                       # Number of conflicting stores. (Count)
system.cpu.MemDepUnit__1.insertedLoads              0                       # Number of loads inserted to the mem dependence unit. (Count)
system.cpu.MemDepUnit__1.insertedStores             0                       # Number of stores inserted to the mem dependence unit. (Count)
system.cpu.MemDepUnit__1.conflictingLoads            0                       # Number of conflicting loads. (Count)
system.cpu.MemDepUnit__1.conflictingStores            0                       # Number of conflicting stores. (Count)
system.cpu.MemDepUnit__2.insertedLoads              0                       # Number of loads inserted to the mem dependence unit. (Count)
system.cpu.MemDepUnit__2.insertedStores             0                       # Number of stores inserted to the mem dependence unit. (Count)
system.cpu.MemDepUnit__2.conflictingLoads            0                       # Number of conflicting loads. (Count)
system.cpu.MemDepUnit__2.conflictingStores            0                       # Number of conflicting stores. (Count)
system.cpu.MemDepUnit__3.insertedLoads              0                       # Number of loads inserted to the mem dependence unit. (Count)
system.cpu.MemDepUnit__3.insertedStores             0                       # Number of stores inserted to the mem dependence unit. (Count)
system.cpu.MemDepUnit__3.conflictingLoads            0                       # Number of conflicting loads. (Count)
system.cpu.MemDepUnit__3.conflictingStores            0                       # Number of conflicting stores. (Count)
system.cpu.branchPred.lookups                  968134                       # Number of BP lookups (Count)
system.cpu.branchPred.condPredicted            947244                       # Number of conditional branches predicted (Count)
system.cpu.branchPred.condIncorrect             26092                       # Number of conditional branches incorrect (Count)
system.cpu.branchPred.BTBLookups               831703                       # Number of BTB lookups (Count)
system.cpu.branchPred.BTBHits                  830643                       # Number of BTB hits (Count)
system.cpu.branchPred.BTBHitRatio            0.998726                       # BTB Hit Ratio (Ratio)
system.cpu.branchPred.RASUsed                     516                       # Number of times the RAS was used to get a target. (Count)
system.cpu.branchPred.RASIncorrect                  0                       # Number of incorrect RAS predictions. (Count)
system.cpu.branchPred.indirectLookups             446                       # Number of indirect predictor lookups. (Count)
system.cpu.branchPred.indirectHits                 32                       # Number of indirect target hits. (Count)
system.cpu.branchPred.indirectMisses              414                       # Number of indirect misses. (Count)
system.cpu.branchPred.indirectMispredicted           93                       # Number of mispredicted indirect branches. (Count)
system.cpu.commit.commitSquashedInsts          407385                       # The number of squashed insts skipped by commit (Count)
system.cpu.commit.commitNonSpecStalls              18                       # The number of times commit has been forced to stall to communicate backwards (Count)
system.cpu.commit.branchMispredicts             25954                       # The number of times a branch was mispredicted (Count)
system.cpu.commit.numCommittedDist::samples     16159337                       # Number of insts commited each cycle (Count)
system.cpu.commit.numCommittedDist::mean     0.479695                       # Number of insts commited each cycle (Count)
system.cpu.commit.numCommittedDist::stdev     1.469175                       # Number of insts commited each cycle (Count)
system.cpu.commit.numCommittedDist::underflows            0      0.00%      0.00% # Number of insts commited each cycle (Count)
system.cpu.commit.numCommittedDist::0        13240851     81.94%     81.94% # Number of insts commited each cycle (Count)
system.cpu.commit.numCommittedDist::1         1766522     10.93%     92.87% # Number of insts commited each cycle (Count)
system.cpu.commit.numCommittedDist::2          172934      1.07%     93.94% # Number of insts commited each cycle (Count)
system.cpu.commit.numCommittedDist::3          141891      0.88%     94.82% # Number of insts commited each cycle (Count)
system.cpu.commit.numCommittedDist::4          159418      0.99%     95.81% # Number of insts commited each cycle (Count)
system.cpu.commit.numCommittedDist::5          262478      1.62%     97.43% # Number of insts commited each cycle (Count)
system.cpu.commit.numCommittedDist::6           26066      0.16%     97.59% # Number of insts commited each cycle (Count)
system.cpu.commit.numCommittedDist::7            6381      0.04%     97.63% # Number of insts commited each cycle (Count)
system.cpu.commit.numCommittedDist::8          382796      2.37%    100.00% # Number of insts commited each cycle (Count)
system.cpu.commit.numCommittedDist::overflows            0      0.00%    100.00% # Number of insts commited each cycle (Count)
system.cpu.commit.numCommittedDist::min_value            0                       # Number of insts commited each cycle (Count)
system.cpu.commit.numCommittedDist::max_value            8                       # Number of insts commited each cycle (Count)
system.cpu.commit.numCommittedDist::total     16159337                       # Number of insts commited each cycle (Count)
system.cpu.commit.instsCommitted              3640848                       # Number of instructions committed (Count)
system.cpu.commit.opsCommitted                5708258                       # Number of ops (including micro ops) committed (Count)
system.cpu.commit.memRefs                     1145626                       # Number of memory references committed (Count)
system.cpu.commit.loads                        545727                       # Number of loads committed (Count)
system.cpu.commit.amos                              0                       # Number of atomic instructions committed (Count)
system.cpu.commit.membars                          12                       # Number of memory barriers committed (Count)
system.cpu.commit.branches                     359462                       # Number of branches committed (Count)
system.cpu.commit.vectorInstructions                0                       # Number of committed Vector instructions. (Count)
system.cpu.commit.floating                     189633                       # Number of committed floating point instructions. (Count)
system.cpu.commit.integer                     5580116                       # Number of committed integer instructions. (Count)
system.cpu.commit.functionCalls                   280                       # Number of function calls committed. (Count)
system.cpu.commit.committedInstType_0::No_OpClass         4527      0.08%      0.08% # Class of committed instruction (Count)
system.cpu.commit.committedInstType_0::IntAlu      4491496     78.68%     78.76% # Class of committed instruction (Count)
system.cpu.commit.committedInstType_0::IntMult          523      0.01%     78.77% # Class of committed instruction (Count)
system.cpu.commit.committedInstType_0::IntDiv           21      0.00%     78.77% # Class of committed instruction (Count)
system.cpu.commit.committedInstType_0::FloatAdd          137      0.00%     78.78% # Class of committed instruction (Count)
system.cpu.commit.committedInstType_0::FloatCmp            0      0.00%     78.78% # Class of committed instruction (Count)
system.cpu.commit.committedInstType_0::FloatCvt            0      0.00%     78.78% # Class of committed instruction (Count)
system.cpu.commit.committedInstType_0::FloatMult            0      0.00%     78.78% # Class of committed instruction (Count)
system.cpu.commit.committedInstType_0::FloatMultAcc            0      0.00%     78.78% # Class of committed instruction (Count)
system.cpu.commit.committedInstType_0::FloatDiv            0      0.00%     78.78% # Class of committed instruction (Count)
system.cpu.commit.committedInstType_0::FloatMisc            0      0.00%     78.78% # Class of committed instruction (Count)
system.cpu.commit.committedInstType_0::FloatSqrt            0      0.00%     78.78% # Class of committed instruction (Count)
system.cpu.commit.committedInstType_0::SimdAdd        65536      1.15%     79.92% # Class of committed instruction (Count)
system.cpu.commit.committedInstType_0::SimdAddAcc            0      0.00%     79.92% # Class of committed instruction (Count)
system.cpu.commit.committedInstType_0::SimdAlu           94      0.00%     79.93% # Class of committed instruction (Count)
system.cpu.commit.committedInstType_0::SimdCmp            0      0.00%     79.93% # Class of committed instruction (Count)
system.cpu.commit.committedInstType_0::SimdCvt           46      0.00%     79.93% # Class of committed instruction (Count)
system.cpu.commit.committedInstType_0::SimdMisc          216      0.00%     79.93% # Class of committed instruction (Count)
system.cpu.commit.committedInstType_0::SimdMult            0      0.00%     79.93% # Class of committed instruction (Count)
system.cpu.commit.committedInstType_0::SimdMultAcc            0      0.00%     79.93% # Class of committed instruction (Count)
system.cpu.commit.committedInstType_0::SimdShift            0      0.00%     79.93% # Class of committed instruction (Count)
system.cpu.commit.committedInstType_0::SimdShiftAcc            0      0.00%     79.93% # Class of committed instruction (Count)
system.cpu.commit.committedInstType_0::SimdDiv            0      0.00%     79.93% # Class of committed instruction (Count)
system.cpu.commit.committedInstType_0::SimdSqrt            0      0.00%     79.93% # Class of committed instruction (Count)
system.cpu.commit.committedInstType_0::SimdFloatAdd            0      0.00%     79.93% # Class of committed instruction (Count)
system.cpu.commit.committedInstType_0::SimdFloatAlu            0      0.00%     79.93% # Class of committed instruction (Count)
system.cpu.commit.committedInstType_0::SimdFloatCmp            0      0.00%     79.93% # Class of committed instruction (Count)
system.cpu.commit.committedInstType_0::SimdFloatCvt           18      0.00%     79.93% # Class of committed instruction (Count)
system.cpu.commit.committedInstType_0::SimdFloatDiv            0      0.00%     79.93% # Class of committed instruction (Count)
system.cpu.commit.committedInstType_0::SimdFloatMisc            0      0.00%     79.93% # Class of committed instruction (Count)
system.cpu.commit.committedInstType_0::SimdFloatMult           18      0.00%     79.93% # Class of committed instruction (Count)
system.cpu.commit.committedInstType_0::SimdFloatMultAcc            0      0.00%     79.93% # Class of committed instruction (Count)
system.cpu.commit.committedInstType_0::SimdFloatSqrt            0      0.00%     79.93% # Class of committed instruction (Count)
system.cpu.commit.committedInstType_0::SimdReduceAdd            0      0.00%     79.93% # Class of committed instruction (Count)
system.cpu.commit.committedInstType_0::SimdReduceAlu            0      0.00%     79.93% # Class of committed instruction (Count)
system.cpu.commit.committedInstType_0::SimdReduceCmp            0      0.00%     79.93% # Class of committed instruction (Count)
system.cpu.commit.committedInstType_0::SimdFloatReduceAdd            0      0.00%     79.93% # Class of committed instruction (Count)
system.cpu.commit.committedInstType_0::SimdFloatReduceCmp            0      0.00%     79.93% # Class of committed instruction (Count)
system.cpu.commit.committedInstType_0::SimdAes            0      0.00%     79.93% # Class of committed instruction (Count)
system.cpu.commit.committedInstType_0::SimdAesMix            0      0.00%     79.93% # Class of committed instruction (Count)
system.cpu.commit.committedInstType_0::SimdSha1Hash            0      0.00%     79.93% # Class of committed instruction (Count)
system.cpu.commit.committedInstType_0::SimdSha1Hash2            0      0.00%     79.93% # Class of committed instruction (Count)
system.cpu.commit.committedInstType_0::SimdSha256Hash            0      0.00%     79.93% # Class of committed instruction (Count)
system.cpu.commit.committedInstType_0::SimdSha256Hash2            0      0.00%     79.93% # Class of committed instruction (Count)
system.cpu.commit.committedInstType_0::SimdShaSigma2            0      0.00%     79.93% # Class of committed instruction (Count)
system.cpu.commit.committedInstType_0::SimdShaSigma3            0      0.00%     79.93% # Class of committed instruction (Count)
system.cpu.commit.committedInstType_0::SimdPredAlu            0      0.00%     79.93% # Class of committed instruction (Count)
system.cpu.commit.committedInstType_0::MemRead       545644      9.56%     89.49% # Class of committed instruction (Count)
system.cpu.commit.committedInstType_0::MemWrite       533897      9.35%     98.84% # Class of committed instruction (Count)
system.cpu.commit.committedInstType_0::FloatMemRead           83      0.00%     98.84% # Class of committed instruction (Count)
system.cpu.commit.committedInstType_0::FloatMemWrite        66002      1.16%    100.00% # Class of committed instruction (Count)
system.cpu.commit.committedInstType_0::IprAccess            0      0.00%    100.00% # Class of committed instruction (Count)
system.cpu.commit.committedInstType_0::InstPrefetch            0      0.00%    100.00% # Class of committed instruction (Count)
system.cpu.commit.committedInstType_0::total      5708258                       # Class of committed instruction (Count)
system.cpu.commit.commitEligibleSamples        382796                       # number cycles where commit BW limit reached (Cycle)
system.cpu.dcache.demandHits::cpu.data        1506238                       # number of demand (read+write) hits (Count)
system.cpu.dcache.demandHits::total           1506238                       # number of demand (read+write) hits (Count)
system.cpu.dcache.overallHits::cpu.data       1506238                       # number of overall hits (Count)
system.cpu.dcache.overallHits::total          1506238                       # number of overall hits (Count)
system.cpu.dcache.demandMisses::cpu.data       234455                       # number of demand (read+write) misses (Count)
system.cpu.dcache.demandMisses::total          234455                       # number of demand (read+write) misses (Count)
system.cpu.dcache.overallMisses::cpu.data       234455                       # number of overall misses (Count)
system.cpu.dcache.overallMisses::total         234455                       # number of overall misses (Count)
system.cpu.dcache.demandMissLatency::cpu.data  16026715999                       # number of demand (read+write) miss ticks (Tick)
system.cpu.dcache.demandMissLatency::total  16026715999                       # number of demand (read+write) miss ticks (Tick)
system.cpu.dcache.overallMissLatency::cpu.data  16026715999                       # number of overall miss ticks (Tick)
system.cpu.dcache.overallMissLatency::total  16026715999                       # number of overall miss ticks (Tick)
system.cpu.dcache.demandAccesses::cpu.data      1740693                       # number of demand (read+write) accesses (Count)
system.cpu.dcache.demandAccesses::total       1740693                       # number of demand (read+write) accesses (Count)
system.cpu.dcache.overallAccesses::cpu.data      1740693                       # number of overall (read+write) accesses (Count)
system.cpu.dcache.overallAccesses::total      1740693                       # number of overall (read+write) accesses (Count)
system.cpu.dcache.demandMissRate::cpu.data     0.134691                       # miss rate for demand accesses (Ratio)
system.cpu.dcache.demandMissRate::total      0.134691                       # miss rate for demand accesses (Ratio)
system.cpu.dcache.overallMissRate::cpu.data     0.134691                       # miss rate for overall accesses (Ratio)
system.cpu.dcache.overallMissRate::total     0.134691                       # miss rate for overall accesses (Ratio)
system.cpu.dcache.demandAvgMissLatency::cpu.data 68357.322296                       # average overall miss latency ((Cycle/Count))
system.cpu.dcache.demandAvgMissLatency::total 68357.322296                       # average overall miss latency ((Cycle/Count))
system.cpu.dcache.overallAvgMissLatency::cpu.data 68357.322296                       # average overall miss latency ((Cycle/Count))
system.cpu.dcache.overallAvgMissLatency::total 68357.322296                       # average overall miss latency ((Cycle/Count))
system.cpu.dcache.blockedCycles::no_mshrs        79982                       # number of cycles access was blocked (Cycle)
system.cpu.dcache.blockedCycles::no_targets            0                       # number of cycles access was blocked (Cycle)
system.cpu.dcache.blockedCauses::no_mshrs         3866                       # number of times access was blocked (Count)
system.cpu.dcache.blockedCauses::no_targets            0                       # number of times access was blocked (Count)
system.cpu.dcache.avgBlocked::no_mshrs      20.688567                       # average number of cycles each access was blocked ((Cycle/Count))
system.cpu.dcache.avgBlocked::no_targets          nan                       # average number of cycles each access was blocked ((Cycle/Count))
system.cpu.dcache.writebacks::writebacks       224109                       # number of writebacks (Count)
system.cpu.dcache.writebacks::total            224109                       # number of writebacks (Count)
system.cpu.dcache.demandMshrHits::cpu.data         9715                       # number of demand (read+write) MSHR hits (Count)
system.cpu.dcache.demandMshrHits::total          9715                       # number of demand (read+write) MSHR hits (Count)
system.cpu.dcache.overallMshrHits::cpu.data         9715                       # number of overall MSHR hits (Count)
system.cpu.dcache.overallMshrHits::total         9715                       # number of overall MSHR hits (Count)
system.cpu.dcache.demandMshrMisses::cpu.data       224740                       # number of demand (read+write) MSHR misses (Count)
system.cpu.dcache.demandMshrMisses::total       224740                       # number of demand (read+write) MSHR misses (Count)
system.cpu.dcache.overallMshrMisses::cpu.data       224740                       # number of overall MSHR misses (Count)
system.cpu.dcache.overallMshrMisses::total       224740                       # number of overall MSHR misses (Count)
system.cpu.dcache.demandMshrMissLatency::cpu.data  15279563999                       # number of demand (read+write) MSHR miss ticks (Tick)
system.cpu.dcache.demandMshrMissLatency::total  15279563999                       # number of demand (read+write) MSHR miss ticks (Tick)
system.cpu.dcache.overallMshrMissLatency::cpu.data  15279563999                       # number of overall MSHR miss ticks (Tick)
system.cpu.dcache.overallMshrMissLatency::total  15279563999                       # number of overall MSHR miss ticks (Tick)
system.cpu.dcache.demandMshrMissRate::cpu.data     0.129109                       # mshr miss ratio for demand accesses (Ratio)
system.cpu.dcache.demandMshrMissRate::total     0.129109                       # mshr miss ratio for demand accesses (Ratio)
system.cpu.dcache.overallMshrMissRate::cpu.data     0.129109                       # mshr miss ratio for overall accesses (Ratio)
system.cpu.dcache.overallMshrMissRate::total     0.129109                       # mshr miss ratio for overall accesses (Ratio)
system.cpu.dcache.demandAvgMshrMissLatency::cpu.data 67987.736936                       # average overall mshr miss latency ((Cycle/Count))
system.cpu.dcache.demandAvgMshrMissLatency::total 67987.736936                       # average overall mshr miss latency ((Cycle/Count))
system.cpu.dcache.overallAvgMshrMissLatency::cpu.data 67987.736936                       # average overall mshr miss latency ((Cycle/Count))
system.cpu.dcache.overallAvgMshrMissLatency::total 67987.736936                       # average overall mshr miss latency ((Cycle/Count))
system.cpu.dcache.replacements                 224228                       # number of replacements (Count)
system.cpu.dcache.ReadReq.hits::cpu.data       914753                       # number of ReadReq hits (Count)
system.cpu.dcache.ReadReq.hits::total          914753                       # number of ReadReq hits (Count)
system.cpu.dcache.ReadReq.misses::cpu.data       226041                       # number of ReadReq misses (Count)
system.cpu.dcache.ReadReq.misses::total        226041                       # number of ReadReq misses (Count)
system.cpu.dcache.ReadReq.missLatency::cpu.data  15167641000                       # number of ReadReq miss ticks (Tick)
system.cpu.dcache.ReadReq.missLatency::total  15167641000                       # number of ReadReq miss ticks (Tick)
system.cpu.dcache.ReadReq.accesses::cpu.data      1140794                       # number of ReadReq accesses(hits+misses) (Count)
system.cpu.dcache.ReadReq.accesses::total      1140794                       # number of ReadReq accesses(hits+misses) (Count)
system.cpu.dcache.ReadReq.missRate::cpu.data     0.198144                       # miss rate for ReadReq accesses (Ratio)
system.cpu.dcache.ReadReq.missRate::total     0.198144                       # miss rate for ReadReq accesses (Ratio)
system.cpu.dcache.ReadReq.avgMissLatency::cpu.data 67101.282511                       # average ReadReq miss latency ((Tick/Count))
system.cpu.dcache.ReadReq.avgMissLatency::total 67101.282511                       # average ReadReq miss latency ((Tick/Count))
system.cpu.dcache.ReadReq.mshrHits::cpu.data         9713                       # number of ReadReq MSHR hits (Count)
system.cpu.dcache.ReadReq.mshrHits::total         9713                       # number of ReadReq MSHR hits (Count)
system.cpu.dcache.ReadReq.mshrMisses::cpu.data       216328                       # number of ReadReq MSHR misses (Count)
system.cpu.dcache.ReadReq.mshrMisses::total       216328                       # number of ReadReq MSHR misses (Count)
system.cpu.dcache.ReadReq.mshrMissLatency::cpu.data  14437459000                       # number of ReadReq MSHR miss ticks (Tick)
system.cpu.dcache.ReadReq.mshrMissLatency::total  14437459000                       # number of ReadReq MSHR miss ticks (Tick)
system.cpu.dcache.ReadReq.mshrMissRate::cpu.data     0.189629                       # mshr miss rate for ReadReq accesses (Ratio)
system.cpu.dcache.ReadReq.mshrMissRate::total     0.189629                       # mshr miss rate for ReadReq accesses (Ratio)
system.cpu.dcache.ReadReq.avgMshrMissLatency::cpu.data 66738.743944                       # average ReadReq mshr miss latency ((Tick/Count))
system.cpu.dcache.ReadReq.avgMshrMissLatency::total 66738.743944                       # average ReadReq mshr miss latency ((Tick/Count))
system.cpu.dcache.WriteReq.hits::cpu.data       591485                       # number of WriteReq hits (Count)
system.cpu.dcache.WriteReq.hits::total         591485                       # number of WriteReq hits (Count)
system.cpu.dcache.WriteReq.misses::cpu.data         8414                       # number of WriteReq misses (Count)
system.cpu.dcache.WriteReq.misses::total         8414                       # number of WriteReq misses (Count)
system.cpu.dcache.WriteReq.missLatency::cpu.data    859074999                       # number of WriteReq miss ticks (Tick)
system.cpu.dcache.WriteReq.missLatency::total    859074999                       # number of WriteReq miss ticks (Tick)
system.cpu.dcache.WriteReq.accesses::cpu.data       599899                       # number of WriteReq accesses(hits+misses) (Count)
system.cpu.dcache.WriteReq.accesses::total       599899                       # number of WriteReq accesses(hits+misses) (Count)
system.cpu.dcache.WriteReq.missRate::cpu.data     0.014026                       # miss rate for WriteReq accesses (Ratio)
system.cpu.dcache.WriteReq.missRate::total     0.014026                       # miss rate for WriteReq accesses (Ratio)
system.cpu.dcache.WriteReq.avgMissLatency::cpu.data 102100.665439                       # average WriteReq miss latency ((Tick/Count))
system.cpu.dcache.WriteReq.avgMissLatency::total 102100.665439                       # average WriteReq miss latency ((Tick/Count))
system.cpu.dcache.WriteReq.mshrHits::cpu.data            2                       # number of WriteReq MSHR hits (Count)
system.cpu.dcache.WriteReq.mshrHits::total            2                       # number of WriteReq MSHR hits (Count)
system.cpu.dcache.WriteReq.mshrMisses::cpu.data         8412                       # number of WriteReq MSHR misses (Count)
system.cpu.dcache.WriteReq.mshrMisses::total         8412                       # number of WriteReq MSHR misses (Count)
system.cpu.dcache.WriteReq.mshrMissLatency::cpu.data    842104999                       # number of WriteReq MSHR miss ticks (Tick)
system.cpu.dcache.WriteReq.mshrMissLatency::total    842104999                       # number of WriteReq MSHR miss ticks (Tick)
system.cpu.dcache.WriteReq.mshrMissRate::cpu.data     0.014022                       # mshr miss rate for WriteReq accesses (Ratio)
system.cpu.dcache.WriteReq.mshrMissRate::total     0.014022                       # mshr miss rate for WriteReq accesses (Ratio)
system.cpu.dcache.WriteReq.avgMshrMissLatency::cpu.data 100107.584284                       # average WriteReq mshr miss latency ((Tick/Count))
system.cpu.dcache.WriteReq.avgMshrMissLatency::total 100107.584284                       # average WriteReq mshr miss latency ((Tick/Count))
system.cpu.dcache.power_state.pwrStateResidencyTicks::UNDEFINED  16344905000                       # Cumulative time (in ticks) in various power states (Tick)
system.cpu.dcache.tags.tagsInUse           510.467141                       # Average ticks per tags in use ((Tick/Count))
system.cpu.dcache.tags.totalRefs              1730978                       # Total number of references to valid blocks. (Count)
system.cpu.dcache.tags.sampledRefs             224740                       # Sample count of references to valid blocks. (Count)
system.cpu.dcache.tags.avgRefs               7.702136                       # Average number of references to valid blocks. ((Count/Count))
system.cpu.dcache.tags.warmupTick              222000                       # The tick when the warmup percentage was hit. (Tick)
system.cpu.dcache.tags.occupancies::cpu.data   510.467141                       # Average occupied blocks per tick, per requestor ((Count/Tick))
system.cpu.dcache.tags.avgOccs::cpu.data     0.997006                       # Average percentage of cache occupancy ((Ratio/Tick))
system.cpu.dcache.tags.avgOccs::total        0.997006                       # Average percentage of cache occupancy ((Ratio/Tick))
system.cpu.dcache.tags.occupanciesTaskId::1024          512                       # Occupied blocks per task id (Count)
system.cpu.dcache.tags.ageTaskId_1024::0           99                       # Occupied blocks per task id, per block age (Count)
system.cpu.dcache.tags.ageTaskId_1024::1          374                       # Occupied blocks per task id, per block age (Count)
system.cpu.dcache.tags.ageTaskId_1024::2           39                       # Occupied blocks per task id, per block age (Count)
system.cpu.dcache.tags.ratioOccsTaskId::1024            1                       # Ratio of occupied blocks and all blocks, per task id (Ratio)
system.cpu.dcache.tags.tagAccesses            3706126                       # Number of tag accesses (Count)
system.cpu.dcache.tags.dataAccesses           3706126                       # Number of data accesses (Count)
system.cpu.dcache.tags.power_state.pwrStateResidencyTicks::UNDEFINED  16344905000                       # Cumulative time (in ticks) in various power states (Tick)
system.cpu.decode.idleCycles                  1303975                       # Number of cycles decode is idle (Cycle)
system.cpu.decode.blockedCycles              12475935                       # Number of cycles decode is blocked (Cycle)
system.cpu.decode.runCycles                   1913133                       # Number of cycles decode is running (Cycle)
system.cpu.decode.unblockCycles                515100                       # Number of cycles decode is unblocking (Cycle)
system.cpu.decode.squashCycles                 114481                       # Number of cycles decode is squashing (Cycle)
system.cpu.decode.branchResolved               658244                       # Number of times decode resolved a branch (Count)
system.cpu.decode.branchMispred                   257                       # Number of times decode detected a branch misprediction (Count)
system.cpu.decode.decodedInsts               17550013                       # Number of instructions handled by decode (Count)
system.cpu.decode.squashedInsts                  1135                       # Number of squashed instructions handled by decode (Count)
system.cpu.fetch.icacheStallCycles            1582500                       # Number of cycles fetch is stalled on an Icache miss (Cycle)
system.cpu.fetch.insts                       14278564                       # Number of instructions fetch has processed (Count)
system.cpu.fetch.branches                      968134                       # Number of branches that fetch encountered (Count)
system.cpu.fetch.predictedBranches             831191                       # Number of branches that fetch has predicted taken (Count)
system.cpu.fetch.cycles                      14624557                       # Number of cycles fetch has run and was not squashing or blocked (Cycle)
system.cpu.fetch.squashCycles                  229442                       # Number of cycles fetch has spent squashing (Cycle)
system.cpu.fetch.miscStallCycles                  121                       # Number of cycles fetch has spent waiting on interrupts, or bad addresses, or out of MSHRs (Cycle)
system.cpu.fetch.pendingTrapStallCycles           677                       # Number of stall cycles due to pending traps (Cycle)
system.cpu.fetch.pendingQuiesceStallCycles            5                       # Number of stall cycles due to pending quiesce instructions (Cycle)
system.cpu.fetch.icacheWaitRetryStallCycles           43                       # Number of stall cycles due to full MSHR (Cycle)
system.cpu.fetch.cacheLines                   1550159                       # Number of cache lines fetched (Count)
system.cpu.fetch.icacheSquashes                  7738                       # Number of outstanding Icache misses that were squashed (Count)
system.cpu.fetch.nisnDist::samples           16322624                       # Number of instructions fetched each cycle (Total) (Count)
system.cpu.fetch.nisnDist::mean              1.324931                       # Number of instructions fetched each cycle (Total) (Count)
system.cpu.fetch.nisnDist::stdev             2.834489                       # Number of instructions fetched each cycle (Total) (Count)
system.cpu.fetch.nisnDist::underflows               0      0.00%      0.00% # Number of instructions fetched each cycle (Total) (Count)
system.cpu.fetch.nisnDist::0                 13095804     80.23%     80.23% # Number of instructions fetched each cycle (Total) (Count)
system.cpu.fetch.nisnDist::1                   148106      0.91%     81.14% # Number of instructions fetched each cycle (Total) (Count)
system.cpu.fetch.nisnDist::2                   137328      0.84%     81.98% # Number of instructions fetched each cycle (Total) (Count)
system.cpu.fetch.nisnDist::3                   192709      1.18%     83.16% # Number of instructions fetched each cycle (Total) (Count)
system.cpu.fetch.nisnDist::4                   114373      0.70%     83.86% # Number of instructions fetched each cycle (Total) (Count)
system.cpu.fetch.nisnDist::5                    58129      0.36%     84.22% # Number of instructions fetched each cycle (Total) (Count)
system.cpu.fetch.nisnDist::6                    92778      0.57%     84.79% # Number of instructions fetched each cycle (Total) (Count)
system.cpu.fetch.nisnDist::7                   546513      3.35%     88.13% # Number of instructions fetched each cycle (Total) (Count)
system.cpu.fetch.nisnDist::8                  1936884     11.87%    100.00% # Number of instructions fetched each cycle (Total) (Count)
system.cpu.fetch.nisnDist::overflows                0      0.00%    100.00% # Number of instructions fetched each cycle (Total) (Count)
system.cpu.fetch.nisnDist::min_value                0                       # Number of instructions fetched each cycle (Total) (Count)
system.cpu.fetch.nisnDist::max_value                8                       # Number of instructions fetched each cycle (Total) (Count)
system.cpu.fetch.nisnDist::total             16322624                       # Number of instructions fetched each cycle (Total) (Count)
system.cpu.fetch.branchRate                  0.059232                       # Number of branch fetches per cycle (Ratio)
system.cpu.fetch.rate                        0.873579                       # Number of inst fetches per cycle ((Count/Cycle))
system.cpu.icache.demandHits::cpu.inst        1549440                       # number of demand (read+write) hits (Count)
system.cpu.icache.demandHits::total           1549440                       # number of demand (read+write) hits (Count)
system.cpu.icache.overallHits::cpu.inst       1549440                       # number of overall hits (Count)
system.cpu.icache.overallHits::total          1549440                       # number of overall hits (Count)
system.cpu.icache.demandMisses::cpu.inst          718                       # number of demand (read+write) misses (Count)
system.cpu.icache.demandMisses::total             718                       # number of demand (read+write) misses (Count)
system.cpu.icache.overallMisses::cpu.inst          718                       # number of overall misses (Count)
system.cpu.icache.overallMisses::total            718                       # number of overall misses (Count)
system.cpu.icache.demandMissLatency::cpu.inst     66553000                       # number of demand (read+write) miss ticks (Tick)
system.cpu.icache.demandMissLatency::total     66553000                       # number of demand (read+write) miss ticks (Tick)
system.cpu.icache.overallMissLatency::cpu.inst     66553000                       # number of overall miss ticks (Tick)
system.cpu.icache.overallMissLatency::total     66553000                       # number of overall miss ticks (Tick)
system.cpu.icache.demandAccesses::cpu.inst      1550158                       # number of demand (read+write) accesses (Count)
system.cpu.icache.demandAccesses::total       1550158                       # number of demand (read+write) accesses (Count)
system.cpu.icache.overallAccesses::cpu.inst      1550158                       # number of overall (read+write) accesses (Count)
system.cpu.icache.overallAccesses::total      1550158                       # number of overall (read+write) accesses (Count)
system.cpu.icache.demandMissRate::cpu.inst     0.000463                       # miss rate for demand accesses (Ratio)
system.cpu.icache.demandMissRate::total      0.000463                       # miss rate for demand accesses (Ratio)
system.cpu.icache.overallMissRate::cpu.inst     0.000463                       # miss rate for overall accesses (Ratio)
system.cpu.icache.overallMissRate::total     0.000463                       # miss rate for overall accesses (Ratio)
system.cpu.icache.demandAvgMissLatency::cpu.inst 92692.200557                       # average overall miss latency ((Cycle/Count))
system.cpu.icache.demandAvgMissLatency::total 92692.200557                       # average overall miss latency ((Cycle/Count))
system.cpu.icache.overallAvgMissLatency::cpu.inst 92692.200557                       # average overall miss latency ((Cycle/Count))
system.cpu.icache.overallAvgMissLatency::total 92692.200557                       # average overall miss latency ((Cycle/Count))
system.cpu.icache.blockedCycles::no_mshrs          152                       # number of cycles access was blocked (Cycle)
system.cpu.icache.blockedCycles::no_targets            0                       # number of cycles access was blocked (Cycle)
system.cpu.icache.blockedCauses::no_mshrs            5                       # number of times access was blocked (Count)
system.cpu.icache.blockedCauses::no_targets            0                       # number of times access was blocked (Count)
system.cpu.icache.avgBlocked::no_mshrs      30.400000                       # average number of cycles each access was blocked ((Cycle/Count))
system.cpu.icache.avgBlocked::no_targets          nan                       # average number of cycles each access was blocked ((Cycle/Count))
system.cpu.icache.demandMshrHits::cpu.inst          179                       # number of demand (read+write) MSHR hits (Count)
system.cpu.icache.demandMshrHits::total           179                       # number of demand (read+write) MSHR hits (Count)
system.cpu.icache.overallMshrHits::cpu.inst          179                       # number of overall MSHR hits (Count)
system.cpu.icache.overallMshrHits::total          179                       # number of overall MSHR hits (Count)
system.cpu.icache.demandMshrMisses::cpu.inst          539                       # number of demand (read+write) MSHR misses (Count)
system.cpu.icache.demandMshrMisses::total          539                       # number of demand (read+write) MSHR misses (Count)
system.cpu.icache.overallMshrMisses::cpu.inst          539                       # number of overall MSHR misses (Count)
system.cpu.icache.overallMshrMisses::total          539                       # number of overall MSHR misses (Count)
system.cpu.icache.demandMshrMissLatency::cpu.inst     52950000                       # number of demand (read+write) MSHR miss ticks (Tick)
system.cpu.icache.demandMshrMissLatency::total     52950000                       # number of demand (read+write) MSHR miss ticks (Tick)
system.cpu.icache.overallMshrMissLatency::cpu.inst     52950000                       # number of overall MSHR miss ticks (Tick)
system.cpu.icache.overallMshrMissLatency::total     52950000                       # number of overall MSHR miss ticks (Tick)
system.cpu.icache.demandMshrMissRate::cpu.inst     0.000348                       # mshr miss ratio for demand accesses (Ratio)
system.cpu.icache.demandMshrMissRate::total     0.000348                       # mshr miss ratio for demand accesses (Ratio)
system.cpu.icache.overallMshrMissRate::cpu.inst     0.000348                       # mshr miss ratio for overall accesses (Ratio)
system.cpu.icache.overallMshrMissRate::total     0.000348                       # mshr miss ratio for overall accesses (Ratio)
system.cpu.icache.demandAvgMshrMissLatency::cpu.inst 98237.476809                       # average overall mshr miss latency ((Cycle/Count))
system.cpu.icache.demandAvgMshrMissLatency::total 98237.476809                       # average overall mshr miss latency ((Cycle/Count))
system.cpu.icache.overallAvgMshrMissLatency::cpu.inst 98237.476809                       # average overall mshr miss latency ((Cycle/Count))
system.cpu.icache.overallAvgMshrMissLatency::total 98237.476809                       # average overall mshr miss latency ((Cycle/Count))
system.cpu.icache.replacements                    284                       # number of replacements (Count)
system.cpu.icache.ReadReq.hits::cpu.inst      1549440                       # number of ReadReq hits (Count)
system.cpu.icache.ReadReq.hits::total         1549440                       # number of ReadReq hits (Count)
system.cpu.icache.ReadReq.misses::cpu.inst          718                       # number of ReadReq misses (Count)
system.cpu.icache.ReadReq.misses::total           718                       # number of ReadReq misses (Count)
system.cpu.icache.ReadReq.missLatency::cpu.inst     66553000                       # number of ReadReq miss ticks (Tick)
system.cpu.icache.ReadReq.missLatency::total     66553000                       # number of ReadReq miss ticks (Tick)
system.cpu.icache.ReadReq.accesses::cpu.inst      1550158                       # number of ReadReq accesses(hits+misses) (Count)
system.cpu.icache.ReadReq.accesses::total      1550158                       # number of ReadReq accesses(hits+misses) (Count)
system.cpu.icache.ReadReq.missRate::cpu.inst     0.000463                       # miss rate for ReadReq accesses (Ratio)
system.cpu.icache.ReadReq.missRate::total     0.000463                       # miss rate for ReadReq accesses (Ratio)
system.cpu.icache.ReadReq.avgMissLatency::cpu.inst 92692.200557                       # average ReadReq miss latency ((Tick/Count))
system.cpu.icache.ReadReq.avgMissLatency::total 92692.200557                       # average ReadReq miss latency ((Tick/Count))
system.cpu.icache.ReadReq.mshrHits::cpu.inst          179                       # number of ReadReq MSHR hits (Count)
system.cpu.icache.ReadReq.mshrHits::total          179                       # number of ReadReq MSHR hits (Count)
system.cpu.icache.ReadReq.mshrMisses::cpu.inst          539                       # number of ReadReq MSHR misses (Count)
system.cpu.icache.ReadReq.mshrMisses::total          539                       # number of ReadReq MSHR misses (Count)
system.cpu.icache.ReadReq.mshrMissLatency::cpu.inst     52950000                       # number of ReadReq MSHR miss ticks (Tick)
system.cpu.icache.ReadReq.mshrMissLatency::total     52950000                       # number of ReadReq MSHR miss ticks (Tick)
system.cpu.icache.ReadReq.mshrMissRate::cpu.inst     0.000348                       # mshr miss rate for ReadReq accesses (Ratio)
system.cpu.icache.ReadReq.mshrMissRate::total     0.000348                       # mshr miss rate for ReadReq accesses (Ratio)
system.cpu.icache.ReadReq.avgMshrMissLatency::cpu.inst 98237.476809                       # average ReadReq mshr miss latency ((Tick/Count))
system.cpu.icache.ReadReq.avgMshrMissLatency::total 98237.476809                       # average ReadReq mshr miss latency ((Tick/Count))
system.cpu.icache.power_state.pwrStateResidencyTicks::UNDEFINED  16344905000                       # Cumulative time (in ticks) in various power states (Tick)
system.cpu.icache.tags.tagsInUse           250.733231                       # Average ticks per tags in use ((Tick/Count))
system.cpu.icache.tags.totalRefs              1549978                       # Total number of references to valid blocks. (Count)
system.cpu.icache.tags.sampledRefs                538                       # Sample count of references to valid blocks. (Count)
system.cpu.icache.tags.avgRefs                   2881                       # Average number of references to valid blocks. ((Count/Count))
system.cpu.icache.tags.warmupTick              107000                       # The tick when the warmup percentage was hit. (Tick)
system.cpu.icache.tags.occupancies::cpu.inst   250.733231                       # Average occupied blocks per tick, per requestor ((Count/Tick))
system.cpu.icache.tags.avgOccs::cpu.inst     0.979427                       # Average percentage of cache occupancy ((Ratio/Tick))
system.cpu.icache.tags.avgOccs::total        0.979427                       # Average percentage of cache occupancy ((Ratio/Tick))
system.cpu.icache.tags.occupanciesTaskId::1024          254                       # Occupied blocks per task id (Count)
system.cpu.icache.tags.ageTaskId_1024::0           44                       # Occupied blocks per task id, per block age (Count)
system.cpu.icache.tags.ageTaskId_1024::4          210                       # Occupied blocks per task id, per block age (Count)
system.cpu.icache.tags.ratioOccsTaskId::1024     0.992188                       # Ratio of occupied blocks and all blocks, per task id (Ratio)
system.cpu.icache.tags.tagAccesses            3100854                       # Number of tag accesses (Count)
system.cpu.icache.tags.dataAccesses           3100854                       # Number of data accesses (Count)
system.cpu.icache.tags.power_state.pwrStateResidencyTicks::UNDEFINED  16344905000                       # Cumulative time (in ticks) in various power states (Tick)
system.cpu.interrupts.clk_domain.clock          16000                       # Clock period in ticks (Tick)
system.cpu.lsq0.forwLoads                        2670                       # Number of loads that had data forwarded from stores (Count)
system.cpu.lsq0.squashedLoads                 1457782                       # Number of loads squashed (Count)
system.cpu.lsq0.ignoredResponses                    0                       # Number of memory responses ignored because the instruction is squashed (Count)
system.cpu.lsq0.memOrderViolation                  34                       # Number of memory ordering violations (Count)
system.cpu.lsq0.squashedStores                1390122                       # Number of stores squashed (Count)
system.cpu.lsq0.rescheduledLoads                    0                       # Number of loads that were rescheduled (Count)
system.cpu.lsq0.blockedByCache                   3346                       # Number of times an access to memory failed due to the cache being blocked (Count)
system.cpu.lsq0.loadToUse::samples             545727                       # Distribution of cycle latency between the first time a load is issued and its completion (Unspecified)
system.cpu.lsq0.loadToUse::mean              7.304687                       # Distribution of cycle latency between the first time a load is issued and its completion (Unspecified)
system.cpu.lsq0.loadToUse::stdev             9.165321                       # Distribution of cycle latency between the first time a load is issued and its completion (Unspecified)
system.cpu.lsq0.loadToUse::0-9                 449962     82.45%     82.45% # Distribution of cycle latency between the first time a load is issued and its completion (Unspecified)
system.cpu.lsq0.loadToUse::10-19                  225      0.04%     82.49% # Distribution of cycle latency between the first time a load is issued and its completion (Unspecified)
system.cpu.lsq0.loadToUse::20-29                95125     17.43%     99.92% # Distribution of cycle latency between the first time a load is issued and its completion (Unspecified)
system.cpu.lsq0.loadToUse::30-39                   65      0.01%     99.94% # Distribution of cycle latency between the first time a load is issued and its completion (Unspecified)
system.cpu.lsq0.loadToUse::40-49                   28      0.01%     99.94% # Distribution of cycle latency between the first time a load is issued and its completion (Unspecified)
system.cpu.lsq0.loadToUse::50-59                  241      0.04%     99.99% # Distribution of cycle latency between the first time a load is issued and its completion (Unspecified)
system.cpu.lsq0.loadToUse::60-69                   75      0.01%    100.00% # Distribution of cycle latency between the first time a load is issued and its completion (Unspecified)
system.cpu.lsq0.loadToUse::70-79                    2      0.00%    100.00% # Distribution of cycle latency between the first time a load is issued and its completion (Unspecified)
system.cpu.lsq0.loadToUse::80-89                    2      0.00%    100.00% # Distribution of cycle latency between the first time a load is issued and its completion (Unspecified)
system.cpu.lsq0.loadToUse::120-129                  2      0.00%    100.00% # Distribution of cycle latency between the first time a load is issued and its completion (Unspecified)
system.cpu.lsq0.loadToUse::min_value                2                       # Distribution of cycle latency between the first time a load is issued and its completion (Unspecified)
system.cpu.lsq0.loadToUse::max_value              126                       # Distribution of cycle latency between the first time a load is issued and its completion (Unspecified)
system.cpu.lsq0.loadToUse::total               545727                       # Distribution of cycle latency between the first time a load is issued and its completion (Unspecified)
system.cpu.mmu.dtb.rdAccesses                 1143868                       # TLB accesses on read requests (Count)
system.cpu.mmu.dtb.wrAccesses                  773744                       # TLB accesses on write requests (Count)
system.cpu.mmu.dtb.rdMisses                     98806                       # TLB misses on read requests (Count)
system.cpu.mmu.dtb.wrMisses                      4101                       # TLB misses on write requests (Count)
system.cpu.mmu.dtb.walker.power_state.pwrStateResidencyTicks::UNDEFINED  16344905000                       # Cumulative time (in ticks) in various power states (Tick)
system.cpu.mmu.itb.rdAccesses                       0                       # TLB accesses on read requests (Count)
system.cpu.mmu.itb.wrAccesses                 1550288                       # TLB accesses on write requests (Count)
system.cpu.mmu.itb.rdMisses                         0                       # TLB misses on read requests (Count)
system.cpu.mmu.itb.wrMisses                       180                       # TLB misses on write requests (Count)
system.cpu.mmu.itb.walker.power_state.pwrStateResidencyTicks::UNDEFINED  16344905000                       # Cumulative time (in ticks) in various power states (Tick)
system.cpu.power_state.pwrStateResidencyTicks::ON  16344905000                       # Cumulative time (in ticks) in various power states (Tick)
system.cpu.rename.squashCycles                 114481                       # Number of cycles rename is squashing (Cycle)
system.cpu.rename.idleCycles                  1515158                       # Number of cycles rename is idle (Cycle)
system.cpu.rename.blockCycles                10316212                       # Number of cycles rename is blocking (Cycle)
system.cpu.rename.serializeStallCycles            138                       # count of cycles rename stalled for serializing inst (Cycle)
[...]
system.mem_ctrl.dram.bytesWritten::total      6605568                       # Number of bytes written to this memory (Byte)
system.mem_ctrl.dram.numReads::cpu.inst           513                       # Number of read requests responded to by this memory (Count)
system.mem_ctrl.dram.numReads::cpu.data        107357                       # Number of read requests responded to by this memory (Count)
system.mem_ctrl.dram.numReads::total           107870                       # Number of read requests responded to by this memory (Count)
system.mem_ctrl.dram.numWrites::writebacks       103212                       # Number of write requests responded to by this memory (Count)
system.mem_ctrl.dram.numWrites::total          103212                       # Number of write requests responded to by this memory (Count)
system.mem_ctrl.dram.bwRead::cpu.inst         2008699                       # Total read bandwidth from this memory ((Byte/Second))
system.mem_ctrl.dram.bwRead::cpu.data       420366347                       # Total read bandwidth from this memory ((Byte/Second))
system.mem_ctrl.dram.bwRead::total          422375046                       # Total read bandwidth from this memory ((Byte/Second))
system.mem_ctrl.dram.bwInstRead::cpu.inst      2008699                       # Instruction read bandwidth from this memory ((Byte/Second))
system.mem_ctrl.dram.bwInstRead::total        2008699                       # Instruction read bandwidth from this memory ((Byte/Second))
system.mem_ctrl.dram.bwWrite::writebacks    404136212                       # Write bandwidth from this memory ((Byte/Second))
system.mem_ctrl.dram.bwWrite::total         404136212                       # Write bandwidth from this memory ((Byte/Second))
system.mem_ctrl.dram.bwTotal::writebacks    404136212                       # Total bandwidth to/from this memory ((Byte/Second))
system.mem_ctrl.dram.bwTotal::cpu.inst        2008699                       # Total bandwidth to/from this memory ((Byte/Second))
system.mem_ctrl.dram.bwTotal::cpu.data      420366347                       # Total bandwidth to/from this memory ((Byte/Second))
system.mem_ctrl.dram.bwTotal::total         826511258                       # Total bandwidth to/from this memory ((Byte/Second))
system.mem_ctrl.dram.readBursts                106518                       # Number of DRAM read bursts (Count)
system.mem_ctrl.dram.writeBursts               103149                       # Number of DRAM write bursts (Count)
system.mem_ctrl.dram.perBankRdBursts::0          7130                       # Per bank write bursts (Count)
system.mem_ctrl.dram.perBankRdBursts::1          6563                       # Per bank write bursts (Count)
system.mem_ctrl.dram.perBankRdBursts::2          6617                       # Per bank write bursts (Count)
system.mem_ctrl.dram.perBankRdBursts::3          6402                       # Per bank write bursts (Count)
system.mem_ctrl.dram.perBankRdBursts::4          7058                       # Per bank write bursts (Count)
system.mem_ctrl.dram.perBankRdBursts::5          6666                       # Per bank write bursts (Count)
system.mem_ctrl.dram.perBankRdBursts::6          6450                       # Per bank write bursts (Count)
system.mem_ctrl.dram.perBankRdBursts::7          6157                       # Per bank write bursts (Count)
system.mem_ctrl.dram.perBankRdBursts::8          7094                       # Per bank write bursts (Count)
system.mem_ctrl.dram.perBankRdBursts::9          6683                       # Per bank write bursts (Count)
system.mem_ctrl.dram.perBankRdBursts::10         6585                       # Per bank write bursts (Count)
system.mem_ctrl.dram.perBankRdBursts::11         6340                       # Per bank write bursts (Count)
system.mem_ctrl.dram.perBankRdBursts::12         6995                       # Per bank write bursts (Count)
system.mem_ctrl.dram.perBankRdBursts::13         6784                       # Per bank write bursts (Count)
system.mem_ctrl.dram.perBankRdBursts::14         6767                       # Per bank write bursts (Count)
system.mem_ctrl.dram.perBankRdBursts::15         6227                       # Per bank write bursts (Count)
system.mem_ctrl.dram.perBankWrBursts::0          7015                       # Per bank write bursts (Count)
system.mem_ctrl.dram.perBankWrBursts::1          6337                       # Per bank write bursts (Count)
system.mem_ctrl.dram.perBankWrBursts::2          6412                       # Per bank write bursts (Count)
system.mem_ctrl.dram.perBankWrBursts::3          6081                       # Per bank write bursts (Count)
system.mem_ctrl.dram.perBankWrBursts::4          6852                       # Per bank write bursts (Count)
system.mem_ctrl.dram.perBankWrBursts::5          6442                       # Per bank write bursts (Count)
system.mem_ctrl.dram.perBankWrBursts::6          6282                       # Per bank write bursts (Count)
system.mem_ctrl.dram.perBankWrBursts::7          5963                       # Per bank write bursts (Count)
system.mem_ctrl.dram.perBankWrBursts::8          6943                       # Per bank write bursts (Count)
system.mem_ctrl.dram.perBankWrBursts::9          6389                       # Per bank write bursts (Count)
system.mem_ctrl.dram.perBankWrBursts::10         6386                       # Per bank write bursts (Count)
system.mem_ctrl.dram.perBankWrBursts::11         6129                       # Per bank write bursts (Count)
system.mem_ctrl.dram.perBankWrBursts::12         6855                       # Per bank write bursts (Count)
system.mem_ctrl.dram.perBankWrBursts::13         6585                       # Per bank write bursts (Count)
system.mem_ctrl.dram.perBankWrBursts::14         6501                       # Per bank write bursts (Count)
system.mem_ctrl.dram.perBankWrBursts::15         5977                       # Per bank write bursts (Count)
system.mem_ctrl.dram.totQLat               2476677500                       # Total ticks spent queuing (Tick)
system.mem_ctrl.dram.totBusLat              532590000                       # Total ticks spent in databus transfers (Tick)
system.mem_ctrl.dram.totMemAccLat          4473890000                       # Total ticks spent from burst creation until serviced by the DRAM (Tick)
system.mem_ctrl.dram.avgQLat                 23251.26                       # Average queueing delay per DRAM burst ((Tick/Count))
system.mem_ctrl.dram.avgBusLat                5000.00                       # Average bus latency per DRAM burst ((Tick/Count))
system.mem_ctrl.dram.avgMemAccLat            42001.26                       # Average memory access latency per DRAM burst ((Tick/Count))
system.mem_ctrl.dram.readRowHits                23826                       # Number of row buffer hits during reads (Count)
system.mem_ctrl.dram.writeRowHits               52964                       # Number of row buffer hits during writes (Count)
system.mem_ctrl.dram.readRowHitRate             22.37                       # Row buffer hit rate for reads (Ratio)
system.mem_ctrl.dram.writeRowHitRate            51.35                       # Row buffer hit rate for writes (Ratio)
system.mem_ctrl.dram.bytesPerActivate::samples       132873                       # Bytes accessed per row activation (Byte)
system.mem_ctrl.dram.bytesPerActivate::mean   100.980636                       # Bytes accessed per row activation (Byte)
system.mem_ctrl.dram.bytesPerActivate::gmean    87.385404                       # Bytes accessed per row activation (Byte)
system.mem_ctrl.dram.bytesPerActivate::stdev    85.528301                       # Bytes accessed per row activation (Byte)
system.mem_ctrl.dram.bytesPerActivate::0-127        85524     64.37%     64.37% # Bytes accessed per row activation (Byte)
system.mem_ctrl.dram.bytesPerActivate::128-255        42925     32.31%     96.67% # Bytes accessed per row activation (Byte)
system.mem_ctrl.dram.bytesPerActivate::256-383         3369      2.54%     99.21% # Bytes accessed per row activation (Byte)
system.mem_ctrl.dram.bytesPerActivate::384-511          227      0.17%     99.38% # Bytes accessed per row activation (Byte)
system.mem_ctrl.dram.bytesPerActivate::512-639           51      0.04%     99.42% # Bytes accessed per row activation (Byte)
system.mem_ctrl.dram.bytesPerActivate::640-767           40      0.03%     99.45% # Bytes accessed per row activation (Byte)
system.mem_ctrl.dram.bytesPerActivate::768-895           43      0.03%     99.48% # Bytes accessed per row activation (Byte)
system.mem_ctrl.dram.bytesPerActivate::896-1023           59      0.04%     99.52% # Bytes accessed per row activation (Byte)
system.mem_ctrl.dram.bytesPerActivate::1024-1151          635      0.48%    100.00% # Bytes accessed per row activation (Byte)
system.mem_ctrl.dram.bytesPerActivate::total       132873                       # Bytes accessed per row activation (Byte)
system.mem_ctrl.dram.bytesRead                6817152                       # Total number of bytes read from DRAM (Byte)
system.mem_ctrl.dram.bytesWritten             6601536                       # Total number of bytes written to DRAM (Byte)
system.mem_ctrl.dram.avgRdBW               417.081164                       # Average DRAM read bandwidth in MiBytes/s ((Byte/Second))
system.mem_ctrl.dram.avgWrBW               403.889530                       # Average DRAM write bandwidth in MiBytes/s ((Byte/Second))
system.mem_ctrl.dram.peakBW                  12800.00                       # Theoretical peak bandwidth in MiByte/s ((Byte/Second))
system.mem_ctrl.dram.busUtil                     6.41                       # Data bus utilization in percentage (Ratio)
system.mem_ctrl.dram.busUtilRead                 3.26                       # Data bus utilization in percentage for reads (Ratio)
system.mem_ctrl.dram.busUtilWrite                3.16                       # Data bus utilization in percentage for writes (Ratio)
system.mem_ctrl.dram.pageHitRate                36.62                       # Row buffer hit rate, read and write combined (Ratio)
system.mem_ctrl.dram.power_state.pwrStateResidencyTicks::UNDEFINED  16344905000                       # Cumulative time (in ticks) in various power states (Tick)
system.mem_ctrl.dram.rank0.actEnergy        473396280                       # Energy for activate commands per rank (pJ) (Joule)
system.mem_ctrl.dram.rank0.preEnergy        251608500                       # Energy for precharge commands per rank (pJ) (Joule)
system.mem_ctrl.dram.rank0.readEnergy       378727020                       # Energy for read commands per rank (pJ) (Joule)
system.mem_ctrl.dram.rank0.writeEnergy      268224480                       # Energy for write commands per rank (pJ) (Joule)
system.mem_ctrl.dram.rank0.refreshEnergy 1290129360.000000                       # Energy for refresh commands per rank (pJ) (Joule)
system.mem_ctrl.dram.rank0.actBackEnergy   6835343670                       # Energy for active background per rank (pJ) (Joule)
system.mem_ctrl.dram.rank0.preBackEnergy    520364640                       # Energy for precharge background per rank (pJ) (Joule)
system.mem_ctrl.dram.rank0.actPowerDownEnergy            0                       # Energy for active power-down per rank (pJ) (Joule)
system.mem_ctrl.dram.rank0.prePowerDownEnergy            0                       # Energy for precharge power-down per rank (pJ) (Joule)
system.mem_ctrl.dram.rank0.selfRefreshEnergy            0                       # Energy for self refresh per rank (pJ) (Joule)
system.mem_ctrl.dram.rank0.totalEnergy    10017793950                       # Total energy per rank (pJ) (Joule)
system.mem_ctrl.dram.rank0.averagePower    612.900103                       # Core power per rank (mW) (Watt)
system.mem_ctrl.dram.rank0.totalIdleTime            0                       # Total Idle time Per DRAM Rank (Tick)
system.mem_ctrl.dram.rank0.pwrStateTime::IDLE   1291898750                       # Time in different power states (Tick)
system.mem_ctrl.dram.rank0.pwrStateTime::REF    545740000                       # Time in different power states (Tick)
system.mem_ctrl.dram.rank0.pwrStateTime::SREF            0                       # Time in different power states (Tick)
system.mem_ctrl.dram.rank0.pwrStateTime::PRE_PDN            0                       # Time in different power states (Tick)
system.mem_ctrl.dram.rank0.pwrStateTime::ACT  14507266250                       # Time in different power states (Tick)
system.mem_ctrl.dram.rank0.pwrStateTime::ACT_PDN            0                       # Time in different power states (Tick)
system.mem_ctrl.dram.rank1.actEnergy        475345500                       # Energy for activate commands per rank (pJ) (Joule)
system.mem_ctrl.dram.rank1.preEnergy        252644535                       # Energy for precharge commands per rank (pJ) (Joule)
system.mem_ctrl.dram.rank1.readEnergy       381811500                       # Energy for read commands per rank (pJ) (Joule)
system.mem_ctrl.dram.rank1.writeEnergy      270213300                       # Energy for write commands per rank (pJ) (Joule)
system.mem_ctrl.dram.rank1.refreshEnergy 1290129360.000000                       # Energy for refresh commands per rank (pJ) (Joule)
system.mem_ctrl.dram.rank1.actBackEnergy   6811137480                       # Energy for active background per rank (pJ) (Joule)
system.mem_ctrl.dram.rank1.preBackEnergy    540748800                       # Energy for precharge background per rank (pJ) (Joule)
system.mem_ctrl.dram.rank1.actPowerDownEnergy            0                       # Energy for active power-down per rank (pJ) (Joule)
system.mem_ctrl.dram.rank1.prePowerDownEnergy            0                       # Energy for precharge power-down per rank (pJ) (Joule)
system.mem_ctrl.dram.rank1.selfRefreshEnergy            0                       # Energy for self refresh per rank (pJ) (Joule)
system.mem_ctrl.dram.rank1.totalEnergy    10022030475                       # Total energy per rank (pJ) (Joule)
system.mem_ctrl.dram.rank1.averagePower    613.159298                       # Core power per rank (mW) (Watt)
system.mem_ctrl.dram.rank1.totalIdleTime            0                       # Total Idle time Per DRAM Rank (Tick)
system.mem_ctrl.dram.rank1.pwrStateTime::IDLE   1345163500                       # Time in different power states (Tick)
system.mem_ctrl.dram.rank1.pwrStateTime::REF    545740000                       # Time in different power states (Tick)
system.mem_ctrl.dram.rank1.pwrStateTime::SREF            0                       # Time in different power states (Tick)
system.mem_ctrl.dram.rank1.pwrStateTime::PRE_PDN            0                       # Time in different power states (Tick)
system.mem_ctrl.dram.rank1.pwrStateTime::ACT  14454001500                       # Time in different power states (Tick)
system.mem_ctrl.dram.rank1.pwrStateTime::ACT_PDN            0                       # Time in different power states (Tick)
system.mem_ctrl.power_state.pwrStateResidencyTicks::UNDEFINED  16344905000                       # Cumulative time (in ticks) in various power states (Tick)
system.membus.transDist::ReadResp               99529                       # Transaction distribution (Count)
system.membus.transDist::WritebackDirty        103212                       # Transaction distribution (Count)
system.membus.transDist::CleanEvict               348                       # Transaction distribution (Count)
system.membus.transDist::ReadExReq               8341                       # Transaction distribution (Count)
system.membus.transDist::ReadExResp              8341                       # Transaction distribution (Count)
system.membus.transDist::ReadSharedReq          99529                       # Transaction distribution (Count)
system.membus.pktCount_system.l2cache.mem_side_port::system.mem_ctrl.port       319300                       # Packet count per connected requestor and responder (Count)
system.membus.pktCount_system.l2cache.mem_side_port::total       319300                       # Packet count per connected requestor and responder (Count)
system.membus.pktCount::total                  319300                       # Packet count per connected requestor and responder (Count)
system.membus.pktSize_system.l2cache.mem_side_port::system.mem_ctrl.port     13509248                       # Cumulative packet size per connected requestor and responder (Byte)
system.membus.pktSize_system.l2cache.mem_side_port::total     13509248                       # Cumulative packet size per connected requestor and responder (Byte)
system.membus.pktSize::total                 13509248                       # Cumulative packet size per connected requestor and responder (Byte)
system.membus.snoops                                0                       # Total snoops (Count)
system.membus.snoopTraffic                          0                       # Total snoop traffic (Byte)
system.membus.snoopFanout::samples             107870                       # Request fanout histogram (Count)
system.membus.snoopFanout::mean                     0                       # Request fanout histogram (Count)
system.membus.snoopFanout::stdev                    0                       # Request fanout histogram (Count)
system.membus.snoopFanout::underflows               0      0.00%      0.00% # Request fanout histogram (Count)
system.membus.snoopFanout::0                   107870    100.00%    100.00% # Request fanout histogram (Count)
system.membus.snoopFanout::1                        0      0.00%    100.00% # Request fanout histogram (Count)
system.membus.snoopFanout::overflows                0      0.00%    100.00% # Request fanout histogram (Count)
system.membus.snoopFanout::min_value                0                       # Request fanout histogram (Count)
system.membus.snoopFanout::max_value                0                       # Request fanout histogram (Count)
system.membus.snoopFanout::total               107870                       # Request fanout histogram (Count)
system.membus.power_state.pwrStateResidencyTicks::UNDEFINED  16344905000                       # Cumulative time (in ticks) in various power states (Tick)
system.membus.reqLayer2.occupancy           624278000                       # Layer occupancy (ticks) (Tick)
system.membus.reqLayer2.utilization               0.0                       # Layer utilization (Ratio)
system.membus.respLayer0.occupancy          594894000                       # Layer occupancy (ticks) (Tick)
system.membus.respLayer0.utilization              0.0                       # Layer utilization (Ratio)
system.membus.snoop_filter.totRequests         211430                       # Total number of requests made to the snoop filter. (Count)
system.membus.snoop_filter.hitSingleRequests       103560                       # Number of requests hitting in the snoop filter with a single holder of the requested data. (Count)
system.membus.snoop_filter.hitMultiRequests            0                       # Number of requests hitting in the snoop filter with multiple (>1) holders of the requested data. (Count)
system.membus.snoop_filter.totSnoops                0                       # Total number of snoops made to the snoop filter. (Count)
system.membus.snoop_filter.hitSingleSnoops            0                       # Number of snoops hitting in the snoop filter with a single holder of the requested data. (Count)
system.membus.snoop_filter.hitMultiSnoops            0                       # Number of snoops hitting in the snoop filter with multiple (>1) holders of the requested data. (Count)
system.workload.inst.arm                            0                       # number of arm instructions executed (Count)
system.workload.inst.quiesce                        0                       # number of quiesce instructions executed (Count)

---------- End Simulation Statistics   ----------
