
---------- Begin Simulation Statistics ----------
simSeconds                                   0.010349                       # Number of seconds simulated (Second)
simTicks                                  10348793000                       # Number of ticks simulated (Tick)
finalTick                                 10348793000                       # Number of ticks from beginning of simulation (restored from checkpoints and never reset) (Tick)
simFreq                                  1000000000000                       # The number of ticks per simulated second ((Tick/Second))
hostSeconds                                     46.75                       # Real time elapsed on the host (Second)
hostTickRate                                221359620                       # The number of ticks simulated per host second (ticks/s) ((Tick/Second))
hostMemory                                     633576                       # Number of bytes of host memory used (Byte)
simInsts                                      2163555                       # Number of instructions simulated (Count)
simOps                                        3479380                       # Number of ops (including micro ops) simulated (Count)
hostInstRate                                    46278                       # Simulator instruction rate (inst/s) ((Count/Second))
hostOpRate                                      74423                       # Simulator op (including micro ops) rate (op/s) ((Count/Second))
system.clk_domain.clock                          1000                       # Clock period in ticks (Tick)
system.clk_domain.voltage_domain.voltage            1                       # Voltage in Volts (Volt)
system.cpu.numCycles                         10348794                       # Number of cpu cycles simulated (Cycle)
system.cpu.numWorkItemsStarted                      0                       # Number of work items this cpu started (Count)
system.cpu.numWorkItemsCompleted                    0                       # Number of work items this cpu completed (Count)
system.cpu.instsAdded                        11055373                       # Number of instructions added to the IQ (excludes non-spec) (Count)
system.cpu.nonSpecInstsAdded                       64                       # Number of non-speculative instructions added to the IQ (Count)
system.cpu.instsIssued                        7054975                       # Number of instructions issued (Count)
system.cpu.squashedInstsIssued                    616                       # Number of squashed instructions issued (Count)
system.cpu.squashedInstsExamined              7576043                       # Number of squashed instructions iterated over during squash; mainly for profiling (Count)
system.cpu.squashedOperandsExamined          13432014                       # Number of squashed operands that are examined and possibly removed from graph (Count)
system.cpu.squashedNonSpecRemoved                  46                       # Number of squashed non-spec instructions that were removed (Count)
system.cpu.numIssuedDist::samples            10326486                       # Number of insts issued each cycle (Count)
system.cpu.numIssuedDist::mean               0.683192                       # Number of insts issued each cycle (Count)
system.cpu.numIssuedDist::stdev              1.410333                       # Number of insts issued each cycle (Count)
system.cpu.numIssuedDist::underflows                0      0.00%      0.00% # Number of insts issued each cycle (Count)
system.cpu.numIssuedDist::0                   7653178     74.11%     74.11% # Number of insts issued each cycle (Count)
system.cpu.numIssuedDist::1                    843032      8.16%     82.28% # Number of insts issued each cycle (Count)
system.cpu.numIssuedDist::2                    666167      6.45%     88.73% # Number of insts issued each cycle (Count)
system.cpu.numIssuedDist::3                    377740      3.66%     92.38% # Number of insts issued each cycle (Count)
system.cpu.numIssuedDist::4                    367516      3.56%     95.94% # Number of insts issued each cycle (Count)
system.cpu.numIssuedDist::5                    282641      2.74%     98.68% # Number of insts issued each cycle (Count)
system.cpu.numIssuedDist::6                     93557      0.91%     99.59% # Number of insts issued each cycle (Count)
system.cpu.numIssuedDist::7                     39462      0.38%     99.97% # Number of insts issued each cycle (Count)
system.cpu.numIssuedDist::8                      3193      0.03%    100.00% # Number of insts issued each cycle (Count)
system.cpu.numIssuedDist::overflows                 0      0.00%    100.00% # Number of insts issued each cycle (Count)
system.cpu.numIssuedDist::min_value                 0                       # Number of insts issued each cycle (Count)
system.cpu.numIssuedDist::max_value                 8                       # Number of insts issued each cycle (Count)
system.cpu.numIssuedDist::total              10326486                       # Number of insts issued each cycle (Count)
system.cpu.statFuBusy::No_OpClass                   0      0.00%      0.00% # attempts to use FU when none available (Count)
system.cpu.statFuBusy::IntAlu                    6697     97.72%     97.72% # attempts to use FU when none available (Count)
system.cpu.statFuBusy::IntMult                      0      0.00%     97.72% # attempts to use FU when none available (Count)
system.cpu.statFuBusy::IntDiv                       0      0.00%     97.72% # attempts to use FU when none available (Count)
system.cpu.statFuBusy::FloatAdd                     0      0.00%     97.72% # attempts to use FU when none available (Count)
system.cpu.statFuBusy::FloatCmp                     0      0.00%     97.72% # attempts to use FU when none available (Count)
system.cpu.statFuBusy::FloatCvt                     0      0.00%     97.72% # attempts to use FU when none available (Count)
system.cpu.statFuBusy::FloatMult                    0      0.00%     97.72% # attempts to use FU when none available (Count)
system.cpu.statFuBusy::FloatMultAcc                 0      0.00%     97.72% # attempts to use FU when none available (Count)
system.cpu.statFuBusy::FloatDiv                     0      0.00%     97.72% # attempts to use FU when none available (Count)
system.cpu.statFuBusy::FloatMisc                    0      0.00%     97.72% # attempts to use FU when none available (Count)
system.cpu.statFuBusy::FloatSqrt                    0      0.00%     97.72% # attempts to use FU when none available (Count)
system.cpu.statFuBusy::SimdAdd                     63      0.92%     98.64% # attempts to use FU when none available (Count)
system.cpu.statFuBusy::SimdAddAcc                   0      0.00%     98.64% # attempts to use FU when none available (Count)
system.cpu.statFuBusy::SimdAlu                     10      0.15%     98.79% # attempts to use FU when none available (Count)
system.cpu.statFuBusy::SimdCmp                      0      0.00%     98.79% # attempts to use FU when none available (Count)
system.cpu.statFuBusy::SimdCvt                      1      0.01%     98.80% # attempts to use FU when none available (Count)
system.cpu.statFuBusy::SimdMisc                     2      0.03%     98.83% # attempts to use FU when none available (Count)
system.cpu.statFuBusy::SimdMult                     0      0.00%     98.83% # attempts to use FU when none available (Count)
system.cpu.statFuBusy::SimdMultAcc                  0      0.00%     98.83% # attempts to use FU when none available (Count)
system.cpu.statFuBusy::SimdShift                    0      0.00%     98.83% # attempts to use FU when none available (Count)
system.cpu.statFuBusy::SimdShiftAcc                 0      0.00%     98.83% # attempts to use FU when none available (Count)
system.cpu.statFuBusy::SimdDiv                      0      0.00%     98.83% # attempts to use FU when none available (Count)
system.cpu.statFuBusy::SimdSqrt                     0      0.00%     98.83% # attempts to use FU when none available (Count)
system.cpu.statFuBusy::SimdFloatAdd                 0      0.00%     98.83% # attempts to use FU when none available (Count)
system.cpu.statFuBusy::SimdFloatAlu                 0      0.00%     98.83% # attempts to use FU when none available (Count)
system.cpu.statFuBusy::SimdFloatCmp                 0      0.00%     98.83% # attempts to use FU when none available (Count)
system.cpu.statFuBusy::SimdFloatCvt                 0      0.00%     98.83% # attempts to use FU when none available (Count)
system.cpu.statFuBusy::SimdFloatDiv                 0      0.00%     98.83% # attempts to use FU when none available (Count)
system.cpu.statFuBusy::SimdFloatMisc                0      0.00%     98.83% # attempts to use FU when none available (Count)
system.cpu.statFuBusy::SimdFloatMult                0      0.00%     98.83% # attempts to use FU when none available (Count)
system.cpu.statFuBusy::SimdFloatMultAcc             0      0.00%     98.83% # attempts to use FU when none available (Count)
system.cpu.statFuBusy::SimdFloatSqrt                0      0.00%     98.83% # attempts to use FU when none available (Count)
system.cpu.statFuBusy::SimdReduceAdd                0      0.00%     98.83% # attempts to use FU when none available (Count)
system.cpu.statFuBusy::SimdReduceAlu                0      0.00%     98.83% # attempts to use FU when none available (Count)
system.cpu.statFuBusy::SimdReduceCmp                0      0.00%     98.83% # attempts to use FU when none available (Count)
system.cpu.statFuBusy::SimdFloatReduceAdd            0      0.00%     98.83% # attempts to use FU when none available (Count)
system.cpu.statFuBusy::SimdFloatReduceCmp            0      0.00%     98.83% # attempts to use FU when none available (Count)
system.cpu.statFuBusy::SimdAes                      0      0.00%     98.83% # attempts to use FU when none available (Count)
system.cpu.statFuBusy::SimdAesMix                   0      0.00%     98.83% # attempts to use FU when none available (Count)
system.cpu.statFuBusy::SimdSha1Hash                 0      0.00%     98.83% # attempts to use FU when none available (Count)
system.cpu.statFuBusy::SimdSha1Hash2                0      0.00%     98.83% # attempts to use FU when none available (Count)
system.cpu.statFuBusy::SimdSha256Hash               0      0.00%     98.83% # attempts to use FU when none available (Count)
system.cpu.statFuBusy::SimdSha256Hash2              0      0.00%     98.83% # attempts to use FU when none available (Count)
system.cpu.statFuBusy::SimdShaSigma2                0      0.00%     98.83% # attempts to use FU when none available (Count)
system.cpu.statFuBusy::SimdShaSigma3                0      0.00%     98.83% # attempts to use FU when none available (Count)
system.cpu.statFuBusy::SimdPredAlu                  0      0.00%     98.83% # attempts to use FU when none available (Count)
system.cpu.statFuBusy::MemRead                     38      0.55%     99.39% # attempts to use FU when none available (Count)
system.cpu.statFuBusy::MemWrite                    22      0.32%     99.71% # attempts to use FU when none available (Count)
system.cpu.statFuBusy::FloatMemRead                 9      0.13%     99.84% # attempts to use FU when none available (Count)
system.cpu.statFuBusy::FloatMemWrite               11      0.16%    100.00% # attempts to use FU when none available (Count)
system.cpu.statFuBusy::IprAccess                    0      0.00%    100.00% # attempts to use FU when none available (Count)
system.cpu.statFuBusy::InstPrefetch                 0      0.00%    100.00% # attempts to use FU when none available (Count)
system.cpu.statIssuedInstType_0::No_OpClass        11480      0.16%      0.16% # Number of instructions issued per FU type, per thread (Count)
system.cpu.statIssuedInstType_0::IntAlu       5903257     83.68%     83.84% # Number of instructions issued per FU type, per thread (Count)
system.cpu.statIssuedInstType_0::IntMult          573      0.01%     83.85% # Number of instructions issued per FU type, per thread (Count)
system.cpu.statIssuedInstType_0::IntDiv            21      0.00%     83.85% # Number of instructions issued per FU type, per thread (Count)
system.cpu.statIssuedInstType_0::FloatAdd          142      0.00%     83.85% # Number of instructions issued per FU type, per thread (Count)
system.cpu.statIssuedInstType_0::FloatCmp            0      0.00%     83.85% # Number of instructions issued per FU type, per thread (Count)
system.cpu.statIssuedInstType_0::FloatCvt            0      0.00%     83.85% # Number of instructions issued per FU type, per thread (Count)
system.cpu.statIssuedInstType_0::FloatMult            0      0.00%     83.85% # Number of instructions issued per FU type, per thread (Count)
system.cpu.statIssuedInstType_0::FloatMultAcc            0      0.00%     83.85% # Number of instructions issued per FU type, per thread (Count)
system.cpu.statIssuedInstType_0::FloatDiv            0      0.00%     83.85% # Number of instructions issued per FU type, per thread (Count)
system.cpu.statIssuedInstType_0::FloatMisc            0      0.00%     83.85% # Number of instructions issued per FU type, per thread (Count)
system.cpu.statIssuedInstType_0::FloatSqrt            0      0.00%     83.85% # Number of instructions issued per FU type, per thread (Count)
system.cpu.statIssuedInstType_0::SimdAdd        34797      0.49%     84.34% # Number of instructions issued per FU type, per thread (Count)
system.cpu.statIssuedInstType_0::SimdAddAcc            0      0.00%     84.34% # Number of instructions issued per FU type, per thread (Count)
system.cpu.statIssuedInstType_0::SimdAlu          152      0.00%     84.34% # Number of instructions issued per FU type, per thread (Count)
system.cpu.statIssuedInstType_0::SimdCmp            0      0.00%     84.34% # Number of instructions issued per FU type, per thread (Count)
system.cpu.statIssuedInstType_0::SimdCvt           52      0.00%     84.34% # Number of instructions issued per FU type, per thread (Count)
system.cpu.statIssuedInstType_0::SimdMisc          240      0.00%     84.35% # Number of instructions issued per FU type, per thread (Count)
system.cpu.statIssuedInstType_0::SimdMult            0      0.00%     84.35% # Number of instructions issued per FU type, per thread (Count)
system.cpu.statIssuedInstType_0::SimdMultAcc            0      0.00%     84.35% # Number of instructions issued per FU type, per thread (Count)
system.cpu.statIssuedInstType_0::SimdShift            0      0.00%     84.35% # Number of instructions issued per FU type, per thread (Count)
system.cpu.statIssuedInstType_0::SimdShiftAcc            0      0.00%     84.35% # Number of instructions issued per FU type, per thread (Count)
system.cpu.statIssuedInstType_0::SimdDiv            0      0.00%     84.35% # Number of instructions issued per FU type, per thread (Count)
system.cpu.statIssuedInstType_0::SimdSqrt            0      0.00%     84.35% # Number of instructions issued per FU type, per thread (Count)
system.cpu.statIssuedInstType_0::SimdFloatAdd            0      0.00%     84.35% # Number of instructions issued per FU type, per thread (Count)
system.cpu.statIssuedInstType_0::SimdFloatAlu            0      0.00%     84.35% # Number of instructions issued per FU type, per thread (Count)
system.cpu.statIssuedInstType_0::SimdFloatCmp            0      0.00%     84.35% # Number of instructions issued per FU type, per thread (Count)
system.cpu.statIssuedInstType_0::SimdFloatCvt           20      0.00%     84.35% # Number of instructions issued per FU type, per thread (Count)
system.cpu.statIssuedInstType_0::SimdFloatDiv            0      0.00%     84.35% # Number of instructions issued per FU type, per thread (Count)
system.cpu.statIssuedInstType_0::SimdFloatMisc            0      0.00%     84.35% # Number of instructions issued per FU type, per thread (Count)
system.cpu.statIssuedInstType_0::SimdFloatMult           22      0.00%     84.35% # Number of instructions issued per FU type, per thread (Count)
system.cpu.statIssuedInstType_0::SimdFloatMultAcc            0      0.00%     84.35% # Number of instructions issued per FU type, per thread (Count)
system.cpu.statIssuedInstType_0::SimdFloatSqrt            0      0.00%     84.35% # Number of instructions issued per FU type, per thread (Count)
system.cpu.statIssuedInstType_0::SimdReduceAdd            0      0.00%     84.35% # Number of instructions issued per FU type, per thread (Count)
system.cpu.statIssuedInstType_0::SimdReduceAlu            0      0.00%     84.35% # Number of instructions issued per FU type, per thread (Count)
system.cpu.statIssuedInstType_0::SimdReduceCmp            0      0.00%     84.35% # Number of instructions issued per FU type, per thread (Count)
system.cpu.statIssuedInstType_0::SimdFloatReduceAdd            0      0.00%     84.35% # Number of instructions issued per FU type, per thread (Count)
system.cpu.statIssuedInstType_0::SimdFloatReduceCmp            0      0.00%     84.35% # Number of instructions issued per FU type, per thread (Count)
system.cpu.statIssuedInstType_0::SimdAes            0      0.00%     84.35% # Number of instructions issued per FU type, per thread (Count)
system.cpu.statIssuedInstType_0::SimdAesMix            0      0.00%     84.35% # Number of instructions issued per FU type, per thread (Count)
system.cpu.statIssuedInstType_0::SimdSha1Hash            0      0.00%     84.35% # Number of instructions issued per FU type, per thread (Count)
system.cpu.statIssuedInstType_0::SimdSha1Hash2            0      0.00%     84.35% # Number of instructions issued per FU type, per thread (Count)
system.cpu.statIssuedInstType_0::SimdSha256Hash            0      0.00%     84.35% # Number of instructions issued per FU type, per thread (Count)
system.cpu.statIssuedInstType_0::SimdSha256Hash2            0      0.00%     84.35% # Number of instructions issued per FU type, per thread (Count)
system.cpu.statIssuedInstType_0::SimdShaSigma2            0      0.00%     84.35% # Number of instructions issued per FU type, per thread (Count)
system.cpu.statIssuedInstType_0::SimdShaSigma3            0      0.00%     84.35% # Number of instructions issued per FU type, per thread (Count)
system.cpu.statIssuedInstType_0::SimdPredAlu            0      0.00%     84.35% # Number of instructions issued per FU type, per thread (Count)
system.cpu.statIssuedInstType_0::MemRead       658270      9.33%     93.68% # Number of instructions issued per FU type, per thread (Count)
system.cpu.statIssuedInstType_0::MemWrite       410393      5.82%     99.50% # Number of instructions issued per FU type, per thread (Count)
system.cpu.statIssuedInstType_0::FloatMemRead          139      0.00%     99.50% # Number of instructions issued per FU type, per thread (Count)
system.cpu.statIssuedInstType_0::FloatMemWrite        35417      0.50%    100.00% # Number of instructions issued per FU type, per thread (Count)
system.cpu.statIssuedInstType_0::IprAccess            0      0.00%    100.00% # Number of instructions issued per FU type, per thread (Count)
system.cpu.statIssuedInstType_0::InstPrefetch            0      0.00%    100.00% # Number of instructions issued per FU type, per thread (Count)
system.cpu.statIssuedInstType_0::total        7054975                       # Number of instructions issued per FU type, per thread (Count)
system.cpu.issueRate                         0.681720                       # Inst issue rate ((Count/Cycle))
system.cpu.fuBusy                                6853                       # FU busy when requested (Count)
system.cpu.fuBusyRate                        0.000971                       # FU busy rate (busy events/executed inst) ((Count/Count))
system.cpu.intInstQueueReads                 24240637                       # Number of integer instruction queue reads (Count)
system.cpu.intInstQueueWrites                18523645                       # Number of integer instruction queue writes (Count)
system.cpu.intInstQueueWakeupAccesses         6814240                       # Number of integer instruction queue wakeup accesses (Count)
system.cpu.fpInstQueueReads                    203262                       # Number of floating instruction queue reads (Count)
system.cpu.fpInstQueueWrites                   107861                       # Number of floating instruction queue writes (Count)
system.cpu.fpInstQueueWakeupAccesses            99554                       # Number of floating instruction queue wakeup accesses (Count)
system.cpu.vecInstQueueReads                        0                       # Number of vector instruction queue reads (Count)
system.cpu.vecInstQueueWrites                       0                       # Number of vector instruction queue writes (Count)
system.cpu.vecInstQueueWakeupAccesses               0                       # Number of vector instruction queue wakeup accesses (Count)
system.cpu.intAluAccesses                     6948671                       # Number of integer alu accesses (Count)
system.cpu.fpAluAccesses                       101677                       # Number of floating point alu accesses (Count)
system.cpu.vecAluAccesses                           0                       # Number of vector alu accesses (Count)
system.cpu.idleCycles                               0                       # Number of cycles IEW is idle (Cycle)
system.cpu.squashCycles                         83752                       # Number of cycles IEW is squashing (Cycle)
system.cpu.blockCycles                        6292541                       # Number of cycles IEW is blocking (Cycle)
system.cpu.unblockCycles                       247495                       # Number of cycles IEW is unblocking (Cycle)
system.cpu.dispatchedInsts                   11055437                       # Number of instructions dispatched to IQ (Count)
system.cpu.dispSquashedInsts                     1953                       # Number of squashed instructions skipped by dispatch (Count)
system.cpu.dispLoadInsts                      1284421                       # Number of dispatched load instructions (Count)
system.cpu.dispStoreInsts                     1243507                       # Number of dispatched store instructions (Count)
system.cpu.dispNonSpecInsts                        23                       # Number of dispatched non-speculative instructions (Count)
system.cpu.iqFullEvents                         33966                       # Number of times the IQ has become full, causing a stall (Count)
system.cpu.lsqFullEvents                       160452                       # Number of times the LSQ has become full, causing a stall (Count)
system.cpu.memOrderViolationEvents                 26                       # Number of memory order violations (Count)
system.cpu.predictedTakenIncorrect              15004                       # Number of branches that were predicted taken incorrectly (Count)
system.cpu.predictedNotTakenIncorrect            8863                       # Number of branches that were predicted not taken incorrectly (Count)
system.cpu.branchMispredicts                    23867                       # Number of branch mispredicts detected at execute (Count)
system.cpu.numInsts                           6925048                       # Number of executed instructions (Count)
system.cpu.loadInsts                           521051                       # Number of load instructions executed (Count)
system.cpu.numSquashedInsts                    129921                       # Number of squashed instructions skipped in execute (Count)
system.cpu.numSwp                                   0                       # Number of swp insts executed (Count)
system.cpu.numNop                                   0                       # Number of nop insts executed (Count)
system.cpu.numRefs                            1039754                       # Number of memory reference insts executed (Count)
system.cpu.numBranches                         521017                       # Number of branches executed (Count)
system.cpu.numStoreInsts                       518703                       # Number of stores executed (Count)
system.cpu.numRate                           0.669165                       # Inst execution rate ((Count/Cycle))
system.cpu.loadsRA                             135774                       # Number of load instructions executed in runahead mode (Count)
system.cpu.instsToCommit                      6918755                       # Cumulative count of insts sent to commit (Count)
system.cpu.writebackCount                     6913794                       # Cumulative count of insts written-back (Count)
system.cpu.producerInst                       5844553                       # Number of instructions producing a value (Count)
system.cpu.consumerInst                      11608915                       # Number of instructions consuming a value (Count)
system.cpu.wbRate                            0.668077                       # Insts written-back per cycle ((Count/Cycle))
system.cpu.wbFanout                          0.503454                       # Average fanout of values written-back ((Count/Count))
system.cpu.timesIdled                             313                       # Number of times that the entire CPU went into an idle state and unscheduled itself (Count)
system.cpu.idleCycles                           22308                       # Total number of cycles that the CPU has spent unscheduled due to idling (Cycle)
system.cpu.committedInsts                     2163555                       # Number of Instructions Simulated (Count)
system.cpu.committedOps                       3479380                       # Number of Ops (including micro ops) Simulated (Count)
system.cpu.cpi                               4.783236                       # CPI: Cycles Per Instruction ((Cycle/Count))
system.cpu.totalCpi                          4.783236                       # CPI: Total CPI of All Threads ((Cycle/Count))
system.cpu.ipc                               0.209063                       # IPC: Instructions Per Cycle ((Count/Cycle))
system.cpu.totalIpc                          0.209063                       # IPC: Total IPC of All Threads ((Count/Cycle))
system.cpu.intRegfileReads                   10162417                       # Number of integer regfile reads (Count)
system.cpu.intRegfileWrites                   5937476                       # Number of integer regfile writes (Count)
system.cpu.fpRegfileReads                      201856                       # Number of floating regfile reads (Count)
system.cpu.fpRegfileWrites                      66048                       # Number of floating regfile writes (Count)
system.cpu.ccRegfileReads                     4073345                       # number of cc regfile reads (Count)
system.cpu.ccRegfileWrites                    4388050                       # number of cc regfile writes (Count)
system.cpu.miscRegfileReads                   2102682                       # number of misc regfile reads (Count)
system.cpu.robFull                                 60                       # Number of times that the ROB becomes full (Count)
system.cpu.enterRA                              62718                       # Number of times the CPU enters runahead (Count)
system.cpu.fetchedRA                          4152327                       # Number of instructions fetched in runahead mode. (Count)
system.cpu.totalCyclesRA                      6904683                       # total number of cycles the CPU spends in runahead (Cycle)
system.cpu.cyclesAvgRA                        110.091                       # average number of cycles the CPU spends in runahead ((Cycle/Count))
system.cpu.cyclesRobEmptyRA                   3269892                       # total number of cycles when ROB would be empty in runahead (Cycle)
system.cpu.pctRobEmptyRA                       47.358                       # percentage of cycles spent in runahead, when ROB would be empty (Ratio)
system.cpu.totalInsertedRA                    2301221                       # total number of instructions inserted into ROB in runahead (Count)
system.cpu.insertedAvgRA                       36.692                       # average number of instructions inserted into ROB in runahead (Ratio)
system.cpu.maxAtRobHd                             463                       # maximum number of cycles one instruction spends at the head of ROB in runahead (Count)
system.cpu.totalDecodedRA                     2110299                       # total number of instructions decoded in runahead (Count)
system.cpu.decodedAvgRA                        33.647                       # average number of instructions decoded in runahead (Ratio)
system.cpu.MemDepUnit__0.insertedLoads        1284421                       # Number of loads inserted to the mem dependence unit. (Count)
system.cpu.MemDepUnit__0.insertedStores       1243507                       # Number of stores inserted to the mem dependence unit. (Count)
system.cpu.MemDepUnit__0.conflictingLoads       779706                       # Number of conflicting loads. (Count)
system.cpu.MemDepUnit__0.conflictingStores       724972                       # Number of conflicting stores. (Count)
system.cpu.MemDepUnit__1.insertedLoads              0                       # Number of loads inserted to the mem dependence unit. (Count)
system.cpu.MemDepUnit__1.insertedStores             0                       # Number of stores inserted to the mem dependence unit. (Count)
system.cpu.MemDepUnit__1.conflictingLoads            0                       # Number of conflicting loads. (Count)
system.cpu.MemDepUnit__1.conflictingStores            0                       # Number of conflicting stores. (Count)
system.cpu.MemDepUnit__2.insertedLoads              0                       # Number of loads inserted to the mem dependence unit. (Count)
system.cpu.MemDepUnit__2.insertedStores             0                       # Number of stores inserted to the mem dependence unit. (Count)
system.cpu.MemDepUnit__2.conflictingLoads            0                       # Number of conflicting loads. (Count)
system.cpu.MemDepUnit__2.conflictingStores            0                       # Number of conflicting stores. (Count)
system.cpu.MemDepUnit__3.insertedLoads              0                       # Number of loads inserted to the mem dependence unit. (Count)
system.cpu.MemDepUnit__3.insertedStores             0                       # Number of stores inserted to the mem dependence unit. (Count)
system.cpu.MemDepUnit__3.conflictingLoads            0                       # Number of conflicting loads. (Count)
system.cpu.MemDepUnit__3.conflictingStores            0                       # Number of conflicting stores. (Count)
system.cpu.branchPred.lookups                  715199                       # Number of BP lookups (Count)
system.cpu.branchPred.condPredicted            696772                       # Number of conditional branches predicted (Count)
system.cpu.branchPred.condIncorrect             21068                       # Number of conditional branches incorrect (Count)
system.cpu.branchPred.BTBLookups               591338                       # Number of BTB lookups (Count)
system.cpu.branchPred.BTBHits                  590254                       # Number of BTB hits (Count)
system.cpu.branchPred.BTBHitRatio            0.998167                       # BTB Hit Ratio (Ratio)
system.cpu.branchPred.RASUsed                     519                       # Number of times the RAS was used to get a target. (Count)
system.cpu.branchPred.RASIncorrect                  0                       # Number of incorrect RAS predictions. (Count)
system.cpu.branchPred.indirectLookups             446                       # Number of indirect predictor lookups. (Count)
system.cpu.branchPred.indirectHits                 32                       # Number of indirect target hits. (Count)
system.cpu.branchPred.indirectMisses              414                       # Number of indirect misses. (Count)
system.cpu.branchPred.indirectMispredicted           93                       # Number of mispredicted indirect branches. (Count)
system.cpu.commit.commitSquashedInsts          328954                       # The number of squashed insts skipped by commit (Count)
system.cpu.commit.commitNonSpecStalls              18                       # The number of times commit has been forced to stall to communicate backwards (Count)
system.cpu.commit.branchMispredicts             20931                       # The number of times a branch was mispredicted (Count)
system.cpu.commit.numCommittedDist::samples     10204023                       # Number of insts commited each cycle (Count)
system.cpu.commit.numCommittedDist::mean     0.476965                       # Number of insts commited each cycle (Count)
system.cpu.commit.numCommittedDist::stdev     1.434816                       # Number of insts commited each cycle (Count)
system.cpu.commit.numCommittedDist::underflows            0      0.00%      0.00% # Number of insts commited each cycle (Count)
system.cpu.commit.numCommittedDist::0         8361736     81.95%     81.95% # Number of insts commited each cycle (Count)
system.cpu.commit.numCommittedDist::1         1086475     10.65%     92.59% # Number of insts commited each cycle (Count)
system.cpu.commit.numCommittedDist::2           99377      0.97%     93.57% # Number of insts commited each cycle (Count)
system.cpu.commit.numCommittedDist::3           99519      0.98%     94.54% # Number of insts commited each cycle (Count)
system.cpu.commit.numCommittedDist::4          146412      1.43%     95.98% # Number of insts commited each cycle (Count)
system.cpu.commit.numCommittedDist::5          183010      1.79%     97.77% # Number of insts commited each cycle (Count)
system.cpu.commit.numCommittedDist::6           16693      0.16%     97.93% # Number of insts commited each cycle (Count)
system.cpu.commit.numCommittedDist::7            4090      0.04%     97.97% # Number of insts commited each cycle (Count)
system.cpu.commit.numCommittedDist::8          206711      2.03%    100.00% # Number of insts commited each cycle (Count)
system.cpu.commit.numCommittedDist::overflows            0      0.00%    100.00% # Number of insts commited each cycle (Count)
system.cpu.commit.numCommittedDist::min_value            0                       # Number of insts commited each cycle (Count)
system.cpu.commit.numCommittedDist::max_value            8                       # Number of insts commited each cycle (Count)
system.cpu.commit.numCommittedDist::total     10204023                       # Number of insts commited each cycle (Count)
system.cpu.commit.instsCommitted              2163555                       # Number of instructions committed (Count)
system.cpu.commit.opsCommitted                3479380                       # Number of ops (including micro ops) committed (Count)
system.cpu.commit.memRefs                      585907                       # Number of memory references committed (Count)
system.cpu.commit.loads                        280920                       # Number of loads committed (Count)
system.cpu.commit.amos                              0                       # Number of atomic instructions committed (Count)
system.cpu.commit.membars                          12                       # Number of memory barriers committed (Count)
system.cpu.commit.branches                     277457                       # Number of branches committed (Count)
system.cpu.commit.vectorInstructions                0                       # Number of committed Vector instructions. (Count)
system.cpu.commit.floating                      95423                       # Number of committed floating point instructions. (Count)
system.cpu.commit.integer                     3414728                       # Number of committed integer instructions. (Count)
system.cpu.commit.functionCalls                   280                       # Number of function calls committed. (Count)
system.cpu.commit.committedInstType_0::No_OpClass         2479      0.07%      0.07% # Class of committed instruction (Count)
system.cpu.commit.committedInstType_0::IntAlu      2857155     82.12%     82.19% # Class of committed instruction (Count)
system.cpu.commit.committedInstType_0::IntMult          523      0.02%     82.20% # Class of committed instruction (Count)
system.cpu.commit.committedInstType_0::IntDiv           21      0.00%     82.20% # Class of committed instruction (Count)
system.cpu.commit.committedInstType_0::FloatAdd          137      0.00%     82.21% # Class of committed instruction (Count)
system.cpu.commit.committedInstType_0::FloatCmp            0      0.00%     82.21% # Class of committed instruction (Count)
system.cpu.commit.committedInstType_0::FloatCvt            0      0.00%     82.21% # Class of committed instruction (Count)
system.cpu.commit.committedInstType_0::FloatMult            0      0.00%     82.21% # Class of committed instruction (Count)
system.cpu.commit.committedInstType_0::FloatMultAcc            0      0.00%     82.21% # Class of committed instruction (Count)
system.cpu.commit.committedInstType_0::FloatDiv            0      0.00%     82.21% # Class of committed instruction (Count)
system.cpu.commit.committedInstType_0::FloatMisc            0      0.00%     82.21% # Class of committed instruction (Count)
system.cpu.commit.committedInstType_0::FloatSqrt            0      0.00%     82.21% # Class of committed instruction (Count)
system.cpu.commit.committedInstType_0::SimdAdd        32768      0.94%     83.15% # Class of committed instruction (Count)
system.cpu.commit.committedInstType_0::SimdAddAcc            0      0.00%     83.15% # Class of committed instruction (Count)
system.cpu.commit.committedInstType_0::SimdAlu           94      0.00%     83.15% # Class of committed instruction (Count)
system.cpu.commit.committedInstType_0::SimdCmp            0      0.00%     83.15% # Class of committed instruction (Count)
system.cpu.commit.committedInstType_0::SimdCvt           46      0.00%     83.15% # Class of committed instruction (Count)
system.cpu.commit.committedInstType_0::SimdMisc          216      0.01%     83.16% # Class of committed instruction (Count)
system.cpu.commit.committedInstType_0::SimdMult            0      0.00%     83.16% # Class of committed instruction (Count)
system.cpu.commit.committedInstType_0::SimdMultAcc            0      0.00%     83.16% # Class of committed instruction (Count)
system.cpu.commit.committedInstType_0::SimdShift            0      0.00%     83.16% # Class of committed instruction (Count)
system.cpu.commit.committedInstType_0::SimdShiftAcc            0      0.00%     83.16% # Class of committed instruction (Count)
system.cpu.commit.committedInstType_0::SimdDiv            0      0.00%     83.16% # Class of committed instruction (Count)
system.cpu.commit.committedInstType_0::SimdSqrt            0      0.00%     83.16% # Class of committed instruction (Count)
system.cpu.commit.committedInstType_0::SimdFloatAdd            0      0.00%     83.16% # Class of committed instruction (Count)
system.cpu.commit.committedInstType_0::SimdFloatAlu            0      0.00%     83.16% # Class of committed instruction (Count)
system.cpu.commit.committedInstType_0::SimdFloatCmp            0      0.00%     83.16% # Class of committed instruction (Count)
system.cpu.commit.committedInstType_0::SimdFloatCvt           17      0.00%     83.16% # Class of committed instruction (Count)
system.cpu.commit.committedInstType_0::SimdFloatDiv            0      0.00%     83.16% # Class of committed instruction (Count)
system.cpu.commit.committedInstType_0::SimdFloatMisc            0      0.00%     83.16% # Class of committed instruction (Count)
system.cpu.commit.committedInstType_0::SimdFloatMult           17      0.00%     83.16% # Class of committed instruction (Count)
system.cpu.commit.committedInstType_0::SimdFloatMultAcc            0      0.00%     83.16% # Class of committed instruction (Count)
system.cpu.commit.committedInstType_0::SimdFloatSqrt            0      0.00%     83.16% # Class of committed instruction (Count)
system.cpu.commit.committedInstType_0::SimdReduceAdd            0      0.00%     83.16% # Class of committed instruction (Count)
system.cpu.commit.committedInstType_0::SimdReduceAlu            0      0.00%     83.16% # Class of committed instruction (Count)
system.cpu.commit.committedInstType_0::SimdReduceCmp            0      0.00%     83.16% # Class of committed instruction (Count)
system.cpu.commit.committedInstType_0::SimdFloatReduceAdd            0      0.00%     83.16% # Class of committed instruction (Count)
system.cpu.commit.committedInstType_0::SimdFloatReduceCmp            0      0.00%     83.16% # Class of committed instruction (Count)
system.cpu.commit.committedInstType_0::SimdAes            0      0.00%     83.16% # Class of committed instruction (Count)
system.cpu.commit.committedInstType_0::SimdAesMix            0      0.00%     83.16% # Class of committed instruction (Count)
system.cpu.commit.committedInstType_0::SimdSha1Hash            0      0.00%     83.16% # Class of committed instruction (Count)
system.cpu.commit.committedInstType_0::SimdSha1Hash2            0      0.00%     83.16% # Class of committed instruction (Count)
system.cpu.commit.committedInstType_0::SimdSha256Hash            0      0.00%     83.16% # Class of committed instruction (Count)
system.cpu.commit.committedInstType_0::SimdSha256Hash2            0      0.00%     83.16% # Class of committed instruction (Count)
system.cpu.commit.committedInstType_0::SimdShaSigma2            0      0.00%     83.16% # Class of committed instruction (Count)
system.cpu.commit.committedInstType_0::SimdShaSigma3            0      0.00%     83.16% # Class of committed instruction (Count)
system.cpu.commit.committedInstType_0::SimdPredAlu            0      0.00%     83.16% # Class of committed instruction (Count)
system.cpu.commit.committedInstType_0::MemRead       280837      8.07%     91.23% # Class of committed instruction (Count)
system.cpu.commit.committedInstType_0::MemWrite       271753      7.81%     99.04% # Class of committed instruction (Count)
system.cpu.commit.committedInstType_0::FloatMemRead           83      0.00%     99.04% # Class of committed instruction (Count)
system.cpu.commit.committedInstType_0::FloatMemWrite        33234      0.96%    100.00% # Class of committed instruction (Count)
system.cpu.commit.committedInstType_0::IprAccess            0      0.00%    100.00% # Class of committed instruction (Count)
system.cpu.commit.committedInstType_0::InstPrefetch            0      0.00%    100.00% # Class of committed instruction (Count)
system.cpu.commit.committedInstType_0::total      3479380                       # Class of committed instruction (Count)
system.cpu.commit.commitEligibleSamples        206711                       # number cycles where commit BW limit reached (Cycle)
system.cpu.dcache.demandHits::cpu.data         862601                       # number of demand (read+write) hits (Count)
system.cpu.dcache.demandHits::total            862601                       # number of demand (read+write) hits (Count)
system.cpu.dcache.overallHits::cpu.data        862601                       # number of overall hits (Count)
system.cpu.dcache.overallHits::total           862601                       # number of overall hits (Count)
system.cpu.dcache.demandMisses::cpu.data        95977                       # number of demand (read+write) misses (Count)
system.cpu.dcache.demandMisses::total           95977                       # number of demand (read+write) misses (Count)
system.cpu.dcache.overallMisses::cpu.data        95977                       # number of overall misses (Count)
system.cpu.dcache.overallMisses::total          95977                       # number of overall misses (Count)
system.cpu.dcache.demandMissLatency::cpu.data   8649649998                       # number of demand (read+write) miss ticks (Tick)
system.cpu.dcache.demandMissLatency::total   8649649998                       # number of demand (read+write) miss ticks (Tick)
system.cpu.dcache.overallMissLatency::cpu.data   8649649998                       # number of overall miss ticks (Tick)
system.cpu.dcache.overallMissLatency::total   8649649998                       # number of overall miss ticks (Tick)
system.cpu.dcache.demandAccesses::cpu.data       958578                       # number of demand (read+write) accesses (Count)
system.cpu.dcache.demandAccesses::total        958578                       # number of demand (read+write) accesses (Count)
system.cpu.dcache.overallAccesses::cpu.data       958578                       # number of overall (read+write) accesses (Count)
system.cpu.dcache.overallAccesses::total       958578                       # number of overall (read+write) accesses (Count)
system.cpu.dcache.demandMissRate::cpu.data     0.100124                       # miss rate for demand accesses (Ratio)
system.cpu.dcache.demandMissRate::total      0.100124                       # miss rate for demand accesses (Ratio)
system.cpu.dcache.overallMissRate::cpu.data     0.100124                       # miss rate for overall accesses (Ratio)
system.cpu.dcache.overallMissRate::total     0.100124                       # miss rate for overall accesses (Ratio)
system.cpu.dcache.demandAvgMissLatency::cpu.data 90122.112569                       # average overall miss latency ((Cycle/Count))
system.cpu.dcache.demandAvgMissLatency::total 90122.112569                       # average overall miss latency ((Cycle/Count))
system.cpu.dcache.overallAvgMissLatency::cpu.data 90122.112569                       # average overall miss latency ((Cycle/Count))
system.cpu.dcache.overallAvgMissLatency::total 90122.112569                       # average overall miss latency ((Cycle/Count))
system.cpu.dcache.blockedCycles::no_mshrs        13420                       # number of cycles access was blocked (Cycle)
system.cpu.dcache.blockedCycles::no_targets            0                       # number of cycles access was blocked (Cycle)
system.cpu.dcache.blockedCauses::no_mshrs          432                       # number of times access was blocked (Count)
system.cpu.dcache.blockedCauses::no_targets            0                       # number of times access was blocked (Count)
system.cpu.dcache.avgBlocked::no_mshrs      31.064815                       # average number of cycles each access was blocked ((Cycle/Count))
system.cpu.dcache.avgBlocked::no_targets          nan                       # average number of cycles each access was blocked ((Cycle/Count))
system.cpu.dcache.writebacks::writebacks        93538                       # number of writebacks (Count)
system.cpu.dcache.writebacks::total             93538                       # number of writebacks (Count)
system.cpu.dcache.demandMshrHits::cpu.data         1833                       # number of demand (read+write) MSHR hits (Count)
system.cpu.dcache.demandMshrHits::total          1833                       # number of demand (read+write) MSHR hits (Count)
system.cpu.dcache.overallMshrHits::cpu.data         1833                       # number of overall MSHR hits (Count)
system.cpu.dcache.overallMshrHits::total         1833                       # number of overall MSHR hits (Count)
system.cpu.dcache.demandMshrMisses::cpu.data        94144                       # number of demand (read+write) MSHR misses (Count)
system.cpu.dcache.demandMshrMisses::total        94144                       # number of demand (read+write) MSHR misses (Count)
system.cpu.dcache.overallMshrMisses::cpu.data        94144                       # number of overall MSHR misses (Count)
system.cpu.dcache.overallMshrMisses::total        94144                       # number of overall MSHR misses (Count)
system.cpu.dcache.demandMshrMissLatency::cpu.data   8398368998                       # number of demand (read+write) MSHR miss ticks (Tick)
system.cpu.dcache.demandMshrMissLatency::total   8398368998                       # number of demand (read+write) MSHR miss ticks (Tick)
system.cpu.dcache.overallMshrMissLatency::cpu.data   8398368998                       # number of overall MSHR miss ticks (Tick)
system.cpu.dcache.overallMshrMissLatency::total   8398368998                       # number of overall MSHR miss ticks (Tick)
system.cpu.dcache.demandMshrMissRate::cpu.data     0.098212                       # mshr miss ratio for demand accesses (Ratio)
system.cpu.dcache.demandMshrMissRate::total     0.098212                       # mshr miss ratio for demand accesses (Ratio)
system.cpu.dcache.overallMshrMissRate::cpu.data     0.098212                       # mshr miss ratio for overall accesses (Ratio)
system.cpu.dcache.overallMshrMissRate::total     0.098212                       # mshr miss ratio for overall accesses (Ratio)
system.cpu.dcache.demandAvgMshrMissLatency::cpu.data 89207.692450                       # average overall mshr miss latency ((Cycle/Count))
system.cpu.dcache.demandAvgMshrMissLatency::total 89207.692450                       # average overall mshr miss latency ((Cycle/Count))
system.cpu.dcache.overallAvgMshrMissLatency::cpu.data 89207.692450                       # average overall mshr miss latency ((Cycle/Count))
system.cpu.dcache.overallAvgMshrMissLatency::total 89207.692450                       # average overall mshr miss latency ((Cycle/Count))
system.cpu.dcache.replacements                  93632                       # number of replacements (Count)
system.cpu.dcache.ReadReq.hits::cpu.data       561870                       # number of ReadReq hits (Count)
system.cpu.dcache.ReadReq.hits::total          561870                       # number of ReadReq hits (Count)
system.cpu.dcache.ReadReq.misses::cpu.data        91721                       # number of ReadReq misses (Count)
system.cpu.dcache.ReadReq.misses::total         91721                       # number of ReadReq misses (Count)
system.cpu.dcache.ReadReq.missLatency::cpu.data   8221018000                       # number of ReadReq miss ticks (Tick)
system.cpu.dcache.ReadReq.missLatency::total   8221018000                       # number of ReadReq miss ticks (Tick)
system.cpu.dcache.ReadReq.accesses::cpu.data       653591                       # number of ReadReq accesses(hits+misses) (Count)
system.cpu.dcache.ReadReq.accesses::total       653591                       # number of ReadReq accesses(hits+misses) (Count)
system.cpu.dcache.ReadReq.missRate::cpu.data     0.140334                       # miss rate for ReadReq accesses (Ratio)
system.cpu.dcache.ReadReq.missRate::total     0.140334                       # miss rate for ReadReq accesses (Ratio)
system.cpu.dcache.ReadReq.avgMissLatency::cpu.data 89630.706163                       # average ReadReq miss latency ((Tick/Count))
system.cpu.dcache.ReadReq.avgMissLatency::total 89630.706163                       # average ReadReq miss latency ((Tick/Count))
system.cpu.dcache.ReadReq.mshrHits::cpu.data         1831                       # number of ReadReq MSHR hits (Count)
system.cpu.dcache.ReadReq.mshrHits::total         1831                       # number of ReadReq MSHR hits (Count)
system.cpu.dcache.ReadReq.mshrMisses::cpu.data        89890                       # number of ReadReq MSHR misses (Count)
system.cpu.dcache.ReadReq.mshrMisses::total        89890                       # number of ReadReq MSHR misses (Count)
system.cpu.dcache.ReadReq.mshrMissLatency::cpu.data   7978391000                       # number of ReadReq MSHR miss ticks (Tick)
system.cpu.dcache.ReadReq.mshrMissLatency::total   7978391000                       # number of ReadReq MSHR miss ticks (Tick)
system.cpu.dcache.ReadReq.mshrMissRate::cpu.data     0.137532                       # mshr miss rate for ReadReq accesses (Ratio)
system.cpu.dcache.ReadReq.mshrMissRate::total     0.137532                       # mshr miss rate for ReadReq accesses (Ratio)
system.cpu.dcache.ReadReq.avgMshrMissLatency::cpu.data 88757.269997                       # average ReadReq mshr miss latency ((Tick/Count))
system.cpu.dcache.ReadReq.avgMshrMissLatency::total 88757.269997                       # average ReadReq mshr miss latency ((Tick/Count))
system.cpu.dcache.WriteReq.hits::cpu.data       300731                       # number of WriteReq hits (Count)
system.cpu.dcache.WriteReq.hits::total         300731                       # number of WriteReq hits (Count)
system.cpu.dcache.WriteReq.misses::cpu.data         4256                       # number of WriteReq misses (Count)
system.cpu.dcache.WriteReq.misses::total         4256                       # number of WriteReq misses (Count)
system.cpu.dcache.WriteReq.missLatency::cpu.data    428631998                       # number of WriteReq miss ticks (Tick)
system.cpu.dcache.WriteReq.missLatency::total    428631998                       # number of WriteReq miss ticks (Tick)
system.cpu.dcache.WriteReq.accesses::cpu.data       304987                       # number of WriteReq accesses(hits+misses) (Count)
system.cpu.dcache.WriteReq.accesses::total       304987                       # number of WriteReq accesses(hits+misses) (Count)
system.cpu.dcache.WriteReq.missRate::cpu.data     0.013955                       # miss rate for WriteReq accesses (Ratio)
system.cpu.dcache.WriteReq.missRate::total     0.013955                       # miss rate for WriteReq accesses (Ratio)
system.cpu.dcache.WriteReq.avgMissLatency::cpu.data 100712.405545                       # average WriteReq miss latency ((Tick/Count))
system.cpu.dcache.WriteReq.avgMissLatency::total 100712.405545                       # average WriteReq miss latency ((Tick/Count))
system.cpu.dcache.WriteReq.mshrHits::cpu.data            2                       # number of WriteReq MSHR hits (Count)
system.cpu.dcache.WriteReq.mshrHits::total            2                       # number of WriteReq MSHR hits (Count)
system.cpu.dcache.WriteReq.mshrMisses::cpu.data         4254                       # number of WriteReq MSHR misses (Count)
system.cpu.dcache.WriteReq.mshrMisses::total         4254                       # number of WriteReq MSHR misses (Count)
system.cpu.dcache.WriteReq.mshrMissLatency::cpu.data    419977998                       # number of WriteReq MSHR miss ticks (Tick)
system.cpu.dcache.WriteReq.mshrMissLatency::total    419977998                       # number of WriteReq MSHR miss ticks (Tick)
system.cpu.dcache.WriteReq.mshrMissRate::cpu.data     0.013948                       # mshr miss rate for WriteReq accesses (Ratio)
system.cpu.dcache.WriteReq.mshrMissRate::total     0.013948                       # mshr miss rate for WriteReq accesses (Ratio)
system.cpu.dcache.WriteReq.avgMshrMissLatency::cpu.data 98725.434415                       # average WriteReq mshr miss latency ((Tick/Count))
system.cpu.dcache.WriteReq.avgMshrMissLatency::total 98725.434415                       # average WriteReq mshr miss latency ((Tick/Count))
system.cpu.dcache.power_state.pwrStateResidencyTicks::UNDEFINED  10348793000                       # Cumulative time (in ticks) in various power states (Tick)
system.cpu.dcache.tags.tagsInUse           509.581983                       # Average ticks per tags in use ((Tick/Count))
system.cpu.dcache.tags.totalRefs               956745                       # Total number of references to valid blocks. (Count)
system.cpu.dcache.tags.sampledRefs              94144                       # Sample count of references to valid blocks. (Count)
system.cpu.dcache.tags.avgRefs              10.162570                       # Average number of references to valid blocks. ((Count/Count))
system.cpu.dcache.tags.warmupTick              222000                       # The tick when the warmup percentage was hit. (Tick)
system.cpu.dcache.tags.occupancies::cpu.data   509.581983                       # Average occupied blocks per tick, per requestor ((Count/Tick))
system.cpu.dcache.tags.avgOccs::cpu.data     0.995277                       # Average percentage of cache occupancy ((Ratio/Tick))
system.cpu.dcache.tags.avgOccs::total        0.995277                       # Average percentage of cache occupancy ((Ratio/Tick))
system.cpu.dcache.tags.occupanciesTaskId::1024          512                       # Occupied blocks per task id (Count)
system.cpu.dcache.tags.ageTaskId_1024::0           81                       # Occupied blocks per task id, per block age (Count)
system.cpu.dcache.tags.ageTaskId_1024::1          334                       # Occupied blocks per task id, per block age (Count)
system.cpu.dcache.tags.ageTaskId_1024::2           95                       # Occupied blocks per task id, per block age (Count)
system.cpu.dcache.tags.ageTaskId_1024::3            2                       # Occupied blocks per task id, per block age (Count)
system.cpu.dcache.tags.ratioOccsTaskId::1024            1                       # Ratio of occupied blocks and all blocks, per task id (Ratio)
system.cpu.dcache.tags.tagAccesses            2011300                       # Number of tag accesses (Count)
system.cpu.dcache.tags.dataAccesses           2011300                       # Number of data accesses (Count)
system.cpu.dcache.tags.power_state.pwrStateResidencyTicks::UNDEFINED  10348793000                       # Cumulative time (in ticks) in various power states (Tick)
system.cpu.decode.idleCycles                   911630                       # Number of cycles decode is idle (Cycle)
system.cpu.decode.blockedCycles               7683412                       # Number of cycles decode is blocked (Cycle)
system.cpu.decode.runCycles                   1425551                       # Number of cycles decode is running (Cycle)
system.cpu.decode.unblockCycles                222141                       # Number of cycles decode is unblocking (Cycle)
system.cpu.decode.squashCycles                  83752                       # Number of cycles decode is squashing (Cycle)
system.cpu.decode.branchResolved               464155                       # Number of times decode resolved a branch (Count)
system.cpu.decode.branchMispred                   255                       # Number of times decode detected a branch misprediction (Count)
system.cpu.decode.decodedInsts               11613099                       # Number of instructions handled by decode (Count)
system.cpu.decode.squashedInsts                  1133                       # Number of squashed instructions handled by decode (Count)
system.cpu.fetch.icacheStallCycles            1086235                       # Number of cycles fetch is stalled on an Icache miss (Cycle)
system.cpu.fetch.insts                        9586264                       # Number of instructions fetch has processed (Count)
system.cpu.fetch.branches                      715199                       # Number of branches that fetch encountered (Count)
system.cpu.fetch.predictedBranches             590805                       # Number of branches that fetch has predicted taken (Count)
system.cpu.fetch.cycles                       9155414                       # Number of cycles fetch has run and was not squashing or blocked (Cycle)
system.cpu.fetch.squashCycles                  167982                       # Number of cycles fetch has spent squashing (Cycle)
system.cpu.fetch.miscStallCycles                  121                       # Number of cycles fetch has spent waiting on interrupts, or bad addresses, or out of MSHRs (Cycle)
system.cpu.fetch.pendingTrapStallCycles           677                       # Number of stall cycles due to pending traps (Cycle)
system.cpu.fetch.pendingQuiesceStallCycles            5                       # Number of stall cycles due to pending quiesce instructions (Cycle)
system.cpu.fetch.icacheWaitRetryStallCycles           43                       # Number of stall cycles due to full MSHR (Cycle)
system.cpu.fetch.cacheLines                   1061235                       # Number of cache lines fetched (Count)
system.cpu.fetch.icacheSquashes                  5460                       # Number of outstanding Icache misses that were squashed (Count)
system.cpu.fetch.nisnDist::samples           10326486                       # Number of instructions fetched each cycle (Total) (Count)
system.cpu.fetch.nisnDist::mean              1.412825                       # Number of instructions fetched each cycle (Total) (Count)
system.cpu.fetch.nisnDist::stdev             2.907788                       # Number of instructions fetched each cycle (Total) (Count)
system.cpu.fetch.nisnDist::underflows               0      0.00%      0.00% # Number of instructions fetched each cycle (Total) (Count)
system.cpu.fetch.nisnDist::0                  8146180     78.89%     78.89% # Number of instructions fetched each cycle (Total) (Count)
system.cpu.fetch.nisnDist::1                   106852      1.03%     79.92% # Number of instructions fetched each cycle (Total) (Count)
system.cpu.fetch.nisnDist::2                    98305      0.95%     80.87% # Number of instructions fetched each cycle (Total) (Count)
system.cpu.fetch.nisnDist::3                   125962      1.22%     82.09% # Number of instructions fetched each cycle (Total) (Count)
system.cpu.fetch.nisnDist::4                    82972      0.80%     82.90% # Number of instructions fetched each cycle (Total) (Count)
system.cpu.fetch.nisnDist::5                    19649      0.19%     83.09% # Number of instructions fetched each cycle (Total) (Count)
system.cpu.fetch.nisnDist::6                    54962      0.53%     83.62% # Number of instructions fetched each cycle (Total) (Count)
system.cpu.fetch.nisnDist::7                   384571      3.72%     87.34% # Number of instructions fetched each cycle (Total) (Count)
system.cpu.fetch.nisnDist::8                  1307033     12.66%    100.00% # Number of instructions fetched each cycle (Total) (Count)
system.cpu.fetch.nisnDist::overflows                0      0.00%    100.00% # Number of instructions fetched each cycle (Total) (Count)
system.cpu.fetch.nisnDist::min_value                0                       # Number of instructions fetched each cycle (Total) (Count)
system.cpu.fetch.nisnDist::max_value                8                       # Number of instructions fetched each cycle (Total) (Count)
system.cpu.fetch.nisnDist::total             10326486                       # Number of instructions fetched each cycle (Total) (Count)
system.cpu.fetch.branchRate                  0.069109                       # Number of branch fetches per cycle (Ratio)
system.cpu.fetch.rate                        0.926317                       # Number of inst fetches per cycle ((Count/Cycle))
system.cpu.icache.demandHits::cpu.inst        1060515                       # number of demand (read+write) hits (Count)
system.cpu.icache.demandHits::total           1060515                       # number of demand (read+write) hits (Count)
system.cpu.icache.overallHits::cpu.inst       1060515                       # number of overall hits (Count)
system.cpu.icache.overallHits::total          1060515                       # number of overall hits (Count)
system.cpu.icache.demandMisses::cpu.inst          719                       # number of demand (read+write) misses (Count)
system.cpu.icache.demandMisses::total             719                       # number of demand (read+write) misses (Count)
system.cpu.icache.overallMisses::cpu.inst          719                       # number of overall misses (Count)
system.cpu.icache.overallMisses::total            719                       # number of overall misses (Count)
system.cpu.icache.demandMissLatency::cpu.inst     66441000                       # number of demand (read+write) miss ticks (Tick)
system.cpu.icache.demandMissLatency::total     66441000                       # number of demand (read+write) miss ticks (Tick)
system.cpu.icache.overallMissLatency::cpu.inst     66441000                       # number of overall miss ticks (Tick)
system.cpu.icache.overallMissLatency::total     66441000                       # number of overall miss ticks (Tick)
system.cpu.icache.demandAccesses::cpu.inst      1061234                       # number of demand (read+write) accesses (Count)
system.cpu.icache.demandAccesses::total       1061234                       # number of demand (read+write) accesses (Count)
system.cpu.icache.overallAccesses::cpu.inst      1061234                       # number of overall (read+write) accesses (Count)
system.cpu.icache.overallAccesses::total      1061234                       # number of overall (read+write) accesses (Count)
system.cpu.icache.demandMissRate::cpu.inst     0.000678                       # miss rate for demand accesses (Ratio)
system.cpu.icache.demandMissRate::total      0.000678                       # miss rate for demand accesses (Ratio)
system.cpu.icache.overallMissRate::cpu.inst     0.000678                       # miss rate for overall accesses (Ratio)
system.cpu.icache.overallMissRate::total     0.000678                       # miss rate for overall accesses (Ratio)
system.cpu.icache.demandAvgMissLatency::cpu.inst 92407.510431                       # average overall miss latency ((Cycle/Count))
system.cpu.icache.demandAvgMissLatency::total 92407.510431                       # average overall miss latency ((Cycle/Count))
system.cpu.icache.overallAvgMissLatency::cpu.inst 92407.510431                       # average overall miss latency ((Cycle/Count))
system.cpu.icache.overallAvgMissLatency::total 92407.510431                       # average overall miss latency ((Cycle/Count))
system.cpu.icache.blockedCycles::no_mshrs          163                       # number of cycles access was blocked (Cycle)
system.cpu.icache.blockedCycles::no_targets            0                       # number of cycles access was blocked (Cycle)
system.cpu.icache.blockedCauses::no_mshrs            6                       # number of times access was blocked (Count)
system.cpu.icache.blockedCauses::no_targets            0                       # number of times access was blocked (Count)
system.cpu.icache.avgBlocked::no_mshrs      27.166667                       # average number of cycles each access was blocked ((Cycle/Count))
system.cpu.icache.avgBlocked::no_targets          nan                       # average number of cycles each access was blocked ((Cycle/Count))
system.cpu.icache.demandMshrHits::cpu.inst          177                       # number of demand (read+write) MSHR hits (Count)
system.cpu.icache.demandMshrHits::total           177                       # number of demand (read+write) MSHR hits (Count)
system.cpu.icache.overallMshrHits::cpu.inst          177                       # number of overall MSHR hits (Count)
system.cpu.icache.overallMshrHits::total          177                       # number of overall MSHR hits (Count)
system.cpu.icache.demandMshrMisses::cpu.inst          542                       # number of demand (read+write) MSHR misses (Count)
system.cpu.icache.demandMshrMisses::total          542                       # number of demand (read+write) MSHR misses (Count)
system.cpu.icache.overallMshrMisses::cpu.inst          542                       # number of overall MSHR misses (Count)
system.cpu.icache.overallMshrMisses::total          542                       # number of overall MSHR misses (Count)
system.cpu.icache.demandMshrMissLatency::cpu.inst     53150000                       # number of demand (read+write) MSHR miss ticks (Tick)
system.cpu.icache.demandMshrMissLatency::total     53150000                       # number of demand (read+write) MSHR miss ticks (Tick)
system.cpu.icache.overallMshrMissLatency::cpu.inst     53150000                       # number of overall MSHR miss ticks (Tick)
system.cpu.icache.overallMshrMissLatency::total     53150000                       # number of overall MSHR miss ticks (Tick)
system.cpu.icache.demandMshrMissRate::cpu.inst     0.000511                       # mshr miss ratio for demand accesses (Ratio)
system.cpu.icache.demandMshrMissRate::total     0.000511                       # mshr miss ratio for demand accesses (Ratio)
system.cpu.icache.overallMshrMissRate::cpu.inst     0.000511                       # mshr miss ratio for overall accesses (Ratio)
system.cpu.icache.overallMshrMissRate::total     0.000511                       # mshr miss ratio for overall accesses (Ratio)
system.cpu.icache.demandAvgMshrMissLatency::cpu.inst 98062.730627                       # average overall mshr miss latency ((Cycle/Count))
system.cpu.icache.demandAvgMshrMissLatency::total 98062.730627                       # average overall mshr miss latency ((Cycle/Count))
system.cpu.icache.overallAvgMshrMissLatency::cpu.inst 98062.730627                       # average overall mshr miss latency ((Cycle/Count))
system.cpu.icache.overallAvgMshrMissLatency::total 98062.730627                       # average overall mshr miss latency ((Cycle/Count))
system.cpu.icache.replacements                    287                       # number of replacements (Count)
system.cpu.icache.ReadReq.hits::cpu.inst      1060515                       # number of ReadReq hits (Count)
system.cpu.icache.ReadReq.hits::total         1060515                       # number of ReadReq hits (Count)
system.cpu.icache.ReadReq.misses::cpu.inst          719                       # number of ReadReq misses (Count)
system.cpu.icache.ReadReq.misses::total           719                       # number of ReadReq misses (Count)
system.cpu.icache.ReadReq.missLatency::cpu.inst     66441000                       # number of ReadReq miss ticks (Tick)
system.cpu.icache.ReadReq.missLatency::total     66441000                       # number of ReadReq miss ticks (Tick)
system.cpu.icache.ReadReq.accesses::cpu.inst      1061234                       # number of ReadReq accesses(hits+misses) (Count)
system.cpu.icache.ReadReq.accesses::total      1061234                       # number of ReadReq accesses(hits+misses) (Count)
system.cpu.icache.ReadReq.missRate::cpu.inst     0.000678                       # miss rate for ReadReq accesses (Ratio)
system.cpu.icache.ReadReq.missRate::total     0.000678                       # miss rate for ReadReq accesses (Ratio)
system.cpu.icache.ReadReq.avgMissLatency::cpu.inst 92407.510431                       # average ReadReq miss latency ((Tick/Count))
system.cpu.icache.ReadReq.avgMissLatency::total 92407.510431                       # average ReadReq miss latency ((Tick/Count))
system.cpu.icache.ReadReq.mshrHits::cpu.inst          177                       # number of ReadReq MSHR hits (Count)
system.cpu.icache.ReadReq.mshrHits::total          177                       # number of ReadReq MSHR hits (Count)
system.cpu.icache.ReadReq.mshrMisses::cpu.inst          542                       # number of ReadReq MSHR misses (Count)
system.cpu.icache.ReadReq.mshrMisses::total          542                       # number of ReadReq MSHR misses (Count)
system.cpu.icache.ReadReq.mshrMissLatency::cpu.inst     53150000                       # number of ReadReq MSHR miss ticks (Tick)
system.cpu.icache.ReadReq.mshrMissLatency::total     53150000                       # number of ReadReq MSHR miss ticks (Tick)
system.cpu.icache.ReadReq.mshrMissRate::cpu.inst     0.000511                       # mshr miss rate for ReadReq accesses (Ratio)
system.cpu.icache.ReadReq.mshrMissRate::total     0.000511                       # mshr miss rate for ReadReq accesses (Ratio)
system.cpu.icache.ReadReq.avgMshrMissLatency::cpu.inst 98062.730627                       # average ReadReq mshr miss latency ((Tick/Count))
system.cpu.icache.ReadReq.avgMshrMissLatency::total 98062.730627                       # average ReadReq mshr miss latency ((Tick/Count))
system.cpu.icache.power_state.pwrStateResidencyTicks::UNDEFINED  10348793000                       # Cumulative time (in ticks) in various power states (Tick)
system.cpu.icache.tags.tagsInUse           250.578646                       # Average ticks per tags in use ((Tick/Count))
system.cpu.icache.tags.totalRefs              1061056                       # Total number of references to valid blocks. (Count)
system.cpu.icache.tags.sampledRefs                541                       # Sample count of references to valid blocks. (Count)
system.cpu.icache.tags.avgRefs            1961.286506                       # Average number of references to valid blocks. ((Count/Count))
system.cpu.icache.tags.warmupTick              107000                       # The tick when the warmup percentage was hit. (Tick)
system.cpu.icache.tags.occupancies::cpu.inst   250.578646                       # Average occupied blocks per tick, per requestor ((Count/Tick))
system.cpu.icache.tags.avgOccs::cpu.inst     0.978823                       # Average percentage of cache occupancy ((Ratio/Tick))
system.cpu.icache.tags.avgOccs::total        0.978823                       # Average percentage of cache occupancy ((Ratio/Tick))
system.cpu.icache.tags.occupanciesTaskId::1024          254                       # Occupied blocks per task id (Count)
system.cpu.icache.tags.ageTaskId_1024::0           45                       # Occupied blocks per task id, per block age (Count)
system.cpu.icache.tags.ageTaskId_1024::3           10                       # Occupied blocks per task id, per block age (Count)
system.cpu.icache.tags.ageTaskId_1024::4          199                       # Occupied blocks per task id, per block age (Count)
system.cpu.icache.tags.ratioOccsTaskId::1024     0.992188                       # Ratio of occupied blocks and all blocks, per task id (Ratio)
system.cpu.icache.tags.tagAccesses            2123009                       # Number of tag accesses (Count)
system.cpu.icache.tags.dataAccesses           2123009                       # Number of data accesses (Count)
system.cpu.icache.tags.power_state.pwrStateResidencyTicks::UNDEFINED  10348793000                       # Cumulative time (in ticks) in various power states (Tick)
system.cpu.interrupts.clk_domain.clock          16000                       # Clock period in ticks (Tick)
system.cpu.lsq0.forwLoads                        2521                       # Number of loads that had data forwarded from stores (Count)
system.cpu.lsq0.squashedLoads                 1003501                       # Number of loads squashed (Count)
system.cpu.lsq0.ignoredResponses                    0                       # Number of memory responses ignored because the instruction is squashed (Count)
system.cpu.lsq0.memOrderViolation                  26                       # Number of memory ordering violations (Count)
system.cpu.lsq0.squashedStores                 938520                       # Number of stores squashed (Count)
system.cpu.lsq0.rescheduledLoads                    0                       # Number of loads that were rescheduled (Count)
system.cpu.lsq0.blockedByCache                    394                       # Number of times an access to memory failed due to the cache being blocked (Count)
system.cpu.lsq0.loadToUse::samples             280920                       # Distribution of cycle latency between the first time a load is issued and its completion (Unspecified)
system.cpu.lsq0.loadToUse::mean              4.999779                       # Distribution of cycle latency between the first time a load is issued and its completion (Unspecified)
system.cpu.lsq0.loadToUse::stdev             6.491392                       # Distribution of cycle latency between the first time a load is issued and its completion (Unspecified)
system.cpu.lsq0.loadToUse::0-9                 258992     92.19%     92.19% # Distribution of cycle latency between the first time a load is issued and its completion (Unspecified)
system.cpu.lsq0.loadToUse::10-19                   27      0.01%     92.20% # Distribution of cycle latency between the first time a load is issued and its completion (Unspecified)
system.cpu.lsq0.loadToUse::20-29                21763      7.75%     99.95% # Distribution of cycle latency between the first time a load is issued and its completion (Unspecified)
system.cpu.lsq0.loadToUse::30-39                   10      0.00%     99.95% # Distribution of cycle latency between the first time a load is issued and its completion (Unspecified)
system.cpu.lsq0.loadToUse::40-49                    6      0.00%     99.96% # Distribution of cycle latency between the first time a load is issued and its completion (Unspecified)
system.cpu.lsq0.loadToUse::50-59                   87      0.03%     99.99% # Distribution of cycle latency between the first time a load is issued and its completion (Unspecified)
system.cpu.lsq0.loadToUse::60-69                   35      0.01%    100.00% # Distribution of cycle latency between the first time a load is issued and its completion (Unspecified)
system.cpu.lsq0.loadToUse::min_value                2                       # Distribution of cycle latency between the first time a load is issued and its completion (Unspecified)
system.cpu.lsq0.loadToUse::max_value               65                       # Distribution of cycle latency between the first time a load is issued and its completion (Unspecified)
system.cpu.lsq0.loadToUse::total               280920                       # Distribution of cycle latency between the first time a load is issued and its completion (Unspecified)
system.cpu.mmu.dtb.rdAccesses                  656238                       # TLB accesses on read requests (Count)
system.cpu.mmu.dtb.wrAccesses                  382929                       # TLB accesses on write requests (Count)
system.cpu.mmu.dtb.rdMisses                      1448                       # TLB misses on read requests (Count)
system.cpu.mmu.dtb.wrMisses                      2053                       # TLB misses on write requests (Count)
system.cpu.mmu.dtb.walker.power_state.pwrStateResidencyTicks::UNDEFINED  10348793000                       # Cumulative time (in ticks) in various power states (Tick)
system.cpu.mmu.itb.rdAccesses                       0                       # TLB accesses on read requests (Count)
system.cpu.mmu.itb.wrAccesses                 1061364                       # TLB accesses on write requests (Count)
system.cpu.mmu.itb.rdMisses                         0                       # TLB misses on read requests (Count)
system.cpu.mmu.itb.wrMisses                       180                       # TLB misses on write requests (Count)
system.cpu.mmu.itb.walker.power_state.pwrStateResidencyTicks::UNDEFINED  10348793000                       # Cumulative time (in ticks) in various power states (Tick)
system.cpu.power_state.pwrStateResidencyTicks::ON  10348793000                       # Cumulative time (in ticks) in various power states (Tick)
system.cpu.rename.squashCycles                  83752                       # Number of cycles rename is squashing (Cycle)
system.cpu.rename.idleCycles                  1024016                       # Number of cycles rename is idle (Cycle)
system.cpu.rename.blockCycles                 6687975                       # Number of cycles rename is blocking (Cycle)
system.cpu.rename.serializeStallCycles            138                       # count of cycles rename stalled for serializing inst (Cycle)
system.cpu.rename.runCycles                   1490973                       # Number of cycles rename is running (Cycle)
system.cpu.rename.unblockCycles               1039632                       # Number of cycles rename is unblocking (Cycle)
[...]
system.mem_ctrl.dram.bytesWritten::total      4397504                       # Number of bytes written to this memory (Byte)
system.mem_ctrl.dram.numReads::cpu.inst           516                       # Number of read requests responded to by this memory (Count)
system.mem_ctrl.dram.numReads::cpu.data         69890                       # Number of read requests responded to by this memory (Count)
system.mem_ctrl.dram.numReads::total            70406                       # Number of read requests responded to by this memory (Count)
system.mem_ctrl.dram.numWrites::writebacks        68711                       # Number of write requests responded to by this memory (Count)
system.mem_ctrl.dram.numWrites::total           68711                       # Number of write requests responded to by this memory (Count)
system.mem_ctrl.dram.bwRead::cpu.inst         3191097                       # Total read bandwidth from this memory ((Byte/Second))
system.mem_ctrl.dram.bwRead::cpu.data       432220453                       # Total read bandwidth from this memory ((Byte/Second))
system.mem_ctrl.dram.bwRead::total          435411550                       # Total read bandwidth from this memory ((Byte/Second))
system.mem_ctrl.dram.bwInstRead::cpu.inst      3191097                       # Instruction read bandwidth from this memory ((Byte/Second))
system.mem_ctrl.dram.bwInstRead::total        3191097                       # Instruction read bandwidth from this memory ((Byte/Second))
system.mem_ctrl.dram.bwWrite::writebacks    424929168                       # Write bandwidth from this memory ((Byte/Second))
system.mem_ctrl.dram.bwWrite::total         424929168                       # Write bandwidth from this memory ((Byte/Second))
system.mem_ctrl.dram.bwTotal::writebacks    424929168                       # Total bandwidth to/from this memory ((Byte/Second))
system.mem_ctrl.dram.bwTotal::cpu.inst        3191097                       # Total bandwidth to/from this memory ((Byte/Second))
system.mem_ctrl.dram.bwTotal::cpu.data      432220453                       # Total bandwidth to/from this memory ((Byte/Second))
system.mem_ctrl.dram.bwTotal::total         860340718                       # Total bandwidth to/from this memory ((Byte/Second))
system.mem_ctrl.dram.readBursts                 69071                       # Number of DRAM read bursts (Count)
system.mem_ctrl.dram.writeBursts                68606                       # Number of DRAM write bursts (Count)
system.mem_ctrl.dram.perBankRdBursts::0          4521                       # Per bank write bursts (Count)
system.mem_ctrl.dram.perBankRdBursts::1          3967                       # Per bank write bursts (Count)
system.mem_ctrl.dram.perBankRdBursts::2          4203                       # Per bank write bursts (Count)
system.mem_ctrl.dram.perBankRdBursts::3          4461                       # Per bank write bursts (Count)
system.mem_ctrl.dram.perBankRdBursts::4          4316                       # Per bank write bursts (Count)
system.mem_ctrl.dram.perBankRdBursts::5          4277                       # Per bank write bursts (Count)
system.mem_ctrl.dram.perBankRdBursts::6          4058                       # Per bank write bursts (Count)
system.mem_ctrl.dram.perBankRdBursts::7          3947                       # Per bank write bursts (Count)
system.mem_ctrl.dram.perBankRdBursts::8          4895                       # Per bank write bursts (Count)
system.mem_ctrl.dram.perBankRdBursts::9          4633                       # Per bank write bursts (Count)
system.mem_ctrl.dram.perBankRdBursts::10         4286                       # Per bank write bursts (Count)
system.mem_ctrl.dram.perBankRdBursts::11         4258                       # Per bank write bursts (Count)
system.mem_ctrl.dram.perBankRdBursts::12         4385                       # Per bank write bursts (Count)
system.mem_ctrl.dram.perBankRdBursts::13         4336                       # Per bank write bursts (Count)
system.mem_ctrl.dram.perBankRdBursts::14         4383                       # Per bank write bursts (Count)
system.mem_ctrl.dram.perBankRdBursts::15         4145                       # Per bank write bursts (Count)
system.mem_ctrl.dram.perBankWrBursts::0          4490                       # Per bank write bursts (Count)
system.mem_ctrl.dram.perBankWrBursts::1          3919                       # Per bank write bursts (Count)
system.mem_ctrl.dram.perBankWrBursts::2          4157                       # Per bank write bursts (Count)
system.mem_ctrl.dram.perBankWrBursts::3          4376                       # Per bank write bursts (Count)
system.mem_ctrl.dram.perBankWrBursts::4          4240                       # Per bank write bursts (Count)
system.mem_ctrl.dram.perBankWrBursts::5          4266                       # Per bank write bursts (Count)
system.mem_ctrl.dram.perBankWrBursts::6          4072                       # Per bank write bursts (Count)
system.mem_ctrl.dram.perBankWrBursts::7          3961                       # Per bank write bursts (Count)
system.mem_ctrl.dram.perBankWrBursts::8          4868                       # Per bank write bursts (Count)
system.mem_ctrl.dram.perBankWrBursts::9          4552                       # Per bank write bursts (Count)
system.mem_ctrl.dram.perBankWrBursts::10         4271                       # Per bank write bursts (Count)
system.mem_ctrl.dram.perBankWrBursts::11         4241                       # Per bank write bursts (Count)
system.mem_ctrl.dram.perBankWrBursts::12         4373                       # Per bank write bursts (Count)
system.mem_ctrl.dram.perBankWrBursts::13         4335                       # Per bank write bursts (Count)
system.mem_ctrl.dram.perBankWrBursts::14         4351                       # Per bank write bursts (Count)
system.mem_ctrl.dram.perBankWrBursts::15         4134                       # Per bank write bursts (Count)
system.mem_ctrl.dram.totQLat               1322020000                       # Total ticks spent queuing (Tick)
system.mem_ctrl.dram.totBusLat              345355000                       # Total ticks spent in databus transfers (Tick)
system.mem_ctrl.dram.totMemAccLat          2617101250                       # Total ticks spent from burst creation until serviced by the DRAM (Tick)
system.mem_ctrl.dram.avgQLat                 19140.02                       # Average queueing delay per DRAM burst ((Tick/Count))
system.mem_ctrl.dram.avgBusLat                5000.00                       # Average bus latency per DRAM burst ((Tick/Count))
system.mem_ctrl.dram.avgMemAccLat            37890.02                       # Average memory access latency per DRAM burst ((Tick/Count))
system.mem_ctrl.dram.readRowHits                26871                       # Number of row buffer hits during reads (Count)
system.mem_ctrl.dram.writeRowHits               51110                       # Number of row buffer hits during writes (Count)
system.mem_ctrl.dram.readRowHitRate             38.90                       # Row buffer hit rate for reads (Ratio)
system.mem_ctrl.dram.writeRowHitRate            74.50                       # Row buffer hit rate for writes (Ratio)
system.mem_ctrl.dram.bytesPerActivate::samples        59694                       # Bytes accessed per row activation (Byte)
system.mem_ctrl.dram.bytesPerActivate::mean   147.600764                       # Bytes accessed per row activation (Byte)
system.mem_ctrl.dram.bytesPerActivate::gmean   119.524844                       # Bytes accessed per row activation (Byte)
system.mem_ctrl.dram.bytesPerActivate::stdev   118.923221                       # Bytes accessed per row activation (Byte)
system.mem_ctrl.dram.bytesPerActivate::0-127        24643     41.28%     41.28% # Bytes accessed per row activation (Byte)
system.mem_ctrl.dram.bytesPerActivate::128-255        24963     41.82%     83.10% # Bytes accessed per row activation (Byte)
system.mem_ctrl.dram.bytesPerActivate::256-383         7584     12.70%     95.81% # Bytes accessed per row activation (Byte)
system.mem_ctrl.dram.bytesPerActivate::384-511         1671      2.80%     98.60% # Bytes accessed per row activation (Byte)
system.mem_ctrl.dram.bytesPerActivate::512-639          300      0.50%     99.11% # Bytes accessed per row activation (Byte)
system.mem_ctrl.dram.bytesPerActivate::640-767           66      0.11%     99.22% # Bytes accessed per row activation (Byte)
system.mem_ctrl.dram.bytesPerActivate::768-895           32      0.05%     99.27% # Bytes accessed per row activation (Byte)
system.mem_ctrl.dram.bytesPerActivate::896-1023           27      0.05%     99.32% # Bytes accessed per row activation (Byte)
system.mem_ctrl.dram.bytesPerActivate::1024-1151          408      0.68%    100.00% # Bytes accessed per row activation (Byte)
system.mem_ctrl.dram.bytesPerActivate::total        59694                       # Bytes accessed per row activation (Byte)
system.mem_ctrl.dram.bytesRead                4420544                       # Total number of bytes read from DRAM (Byte)
system.mem_ctrl.dram.bytesWritten             4390784                       # Total number of bytes written to DRAM (Byte)
system.mem_ctrl.dram.avgRdBW               427.155515                       # Average DRAM read bandwidth in MiBytes/s ((Byte/Second))
system.mem_ctrl.dram.avgWrBW               424.279817                       # Average DRAM write bandwidth in MiBytes/s ((Byte/Second))
system.mem_ctrl.dram.peakBW                  12800.00                       # Theoretical peak bandwidth in MiByte/s ((Byte/Second))
system.mem_ctrl.dram.busUtil                     6.65                       # Data bus utilization in percentage (Ratio)
system.mem_ctrl.dram.busUtilRead                 3.34                       # Data bus utilization in percentage for reads (Ratio)
system.mem_ctrl.dram.busUtilWrite                3.31                       # Data bus utilization in percentage for writes (Ratio)
system.mem_ctrl.dram.pageHitRate                56.64                       # Row buffer hit rate, read and write combined (Ratio)
system.mem_ctrl.dram.power_state.pwrStateResidencyTicks::UNDEFINED  10348793000                       # Cumulative time (in ticks) in various power states (Tick)
system.mem_ctrl.dram.rank0.actEnergy        211436820                       # Energy for activate commands per rank (pJ) (Joule)
system.mem_ctrl.dram.rank0.preEnergy        112377540                       # Energy for precharge commands per rank (pJ) (Joule)
system.mem_ctrl.dram.rank0.readEnergy       240975000                       # Energy for read commands per rank (pJ) (Joule)
system.mem_ctrl.dram.rank0.writeEnergy      174770820                       # Energy for write commands per rank (pJ) (Joule)
system.mem_ctrl.dram.rank0.refreshEnergy 816856560.000000                       # Energy for refresh commands per rank (pJ) (Joule)
system.mem_ctrl.dram.rank0.actBackEnergy   4338010650                       # Energy for active background per rank (pJ) (Joule)
system.mem_ctrl.dram.rank0.preBackEnergy    320875200                       # Energy for precharge background per rank (pJ) (Joule)
system.mem_ctrl.dram.rank0.actPowerDownEnergy            0                       # Energy for active power-down per rank (pJ) (Joule)
system.mem_ctrl.dram.rank0.prePowerDownEnergy            0                       # Energy for precharge power-down per rank (pJ) (Joule)
system.mem_ctrl.dram.rank0.selfRefreshEnergy            0                       # Energy for self refresh per rank (pJ) (Joule)
system.mem_ctrl.dram.rank0.totalEnergy     6215302590                       # Total energy per rank (pJ) (Joule)
system.mem_ctrl.dram.rank0.averagePower    600.582366                       # Core power per rank (mW) (Watt)
system.mem_ctrl.dram.rank0.totalIdleTime            0                       # Total Idle time Per DRAM Rank (Tick)
system.mem_ctrl.dram.rank0.pwrStateTime::IDLE    797208000                       # Time in different power states (Tick)
system.mem_ctrl.dram.rank0.pwrStateTime::REF    345540000                       # Time in different power states (Tick)
system.mem_ctrl.dram.rank0.pwrStateTime::SREF            0                       # Time in different power states (Tick)
system.mem_ctrl.dram.rank0.pwrStateTime::PRE_PDN            0                       # Time in different power states (Tick)
system.mem_ctrl.dram.rank0.pwrStateTime::ACT   9206045000                       # Time in different power states (Tick)
system.mem_ctrl.dram.rank0.pwrStateTime::ACT_PDN            0                       # Time in different power states (Tick)
system.mem_ctrl.dram.rank1.actEnergy        214792620                       # Energy for activate commands per rank (pJ) (Joule)
system.mem_ctrl.dram.rank1.preEnergy        114161190                       # Energy for precharge commands per rank (pJ) (Joule)
system.mem_ctrl.dram.rank1.readEnergy       252191940                       # Energy for read commands per rank (pJ) (Joule)
system.mem_ctrl.dram.rank1.writeEnergy      183352500                       # Energy for write commands per rank (pJ) (Joule)
system.mem_ctrl.dram.rank1.refreshEnergy 816856560.000000                       # Energy for refresh commands per rank (pJ) (Joule)
system.mem_ctrl.dram.rank1.actBackEnergy   4349918520                       # Energy for active background per rank (pJ) (Joule)
system.mem_ctrl.dram.rank1.preBackEnergy    310847520                       # Energy for precharge background per rank (pJ) (Joule)
system.mem_ctrl.dram.rank1.actPowerDownEnergy            0                       # Energy for active power-down per rank (pJ) (Joule)
system.mem_ctrl.dram.rank1.prePowerDownEnergy            0                       # Energy for precharge power-down per rank (pJ) (Joule)
system.mem_ctrl.dram.rank1.selfRefreshEnergy            0                       # Energy for self refresh per rank (pJ) (Joule)
system.mem_ctrl.dram.rank1.totalEnergy     6242120850                       # Total energy per rank (pJ) (Joule)
system.mem_ctrl.dram.rank1.averagePower    603.173805                       # Core power per rank (mW) (Watt)
system.mem_ctrl.dram.rank1.totalIdleTime            0                       # Total Idle time Per DRAM Rank (Tick)
system.mem_ctrl.dram.rank1.pwrStateTime::IDLE    770632000                       # Time in different power states (Tick)
system.mem_ctrl.dram.rank1.pwrStateTime::REF    345540000                       # Time in different power states (Tick)
system.mem_ctrl.dram.rank1.pwrStateTime::SREF            0                       # Time in different power states (Tick)
system.mem_ctrl.dram.rank1.pwrStateTime::PRE_PDN            0                       # Time in different power states (Tick)
system.mem_ctrl.dram.rank1.pwrStateTime::ACT   9232621000                       # Time in different power states (Tick)
system.mem_ctrl.dram.rank1.pwrStateTime::ACT_PDN            0                       # Time in different power states (Tick)
system.mem_ctrl.power_state.pwrStateResidencyTicks::UNDEFINED  10348793000                       # Cumulative time (in ticks) in various power states (Tick)
system.membus.transDist::ReadResp               66161                       # Transaction distribution (Count)
system.membus.transDist::WritebackDirty         68711                       # Transaction distribution (Count)
system.membus.transDist::CleanEvict               351                       # Transaction distribution (Count)
system.membus.transDist::ReadExReq               4245                       # Transaction distribution (Count)
system.membus.transDist::ReadExResp              4245                       # Transaction distribution (Count)
system.membus.transDist::ReadSharedReq          66161                       # Transaction distribution (Count)
system.membus.pktCount_system.l2cache.mem_side_port::system.mem_ctrl.port       209874                       # Packet count per connected requestor and responder (Count)
system.membus.pktCount_system.l2cache.mem_side_port::total       209874                       # Packet count per connected requestor and responder (Count)
system.membus.pktCount::total                  209874                       # Packet count per connected requestor and responder (Count)
system.membus.pktSize_system.l2cache.mem_side_port::system.mem_ctrl.port      8903488                       # Cumulative packet size per connected requestor and responder (Byte)
system.membus.pktSize_system.l2cache.mem_side_port::total      8903488                       # Cumulative packet size per connected requestor and responder (Byte)
system.membus.pktSize::total                  8903488                       # Cumulative packet size per connected requestor and responder (Byte)
system.membus.snoops                                0                       # Total snoops (Count)
system.membus.snoopTraffic                          0                       # Total snoop traffic (Byte)
system.membus.snoopFanout::samples              70406                       # Request fanout histogram (Count)
system.membus.snoopFanout::mean                     0                       # Request fanout histogram (Count)
system.membus.snoopFanout::stdev                    0                       # Request fanout histogram (Count)
system.membus.snoopFanout::underflows               0      0.00%      0.00% # Request fanout histogram (Count)
system.membus.snoopFanout::0                    70406    100.00%    100.00% # Request fanout histogram (Count)
system.membus.snoopFanout::1                        0      0.00%    100.00% # Request fanout histogram (Count)
system.membus.snoopFanout::overflows                0      0.00%    100.00% # Request fanout histogram (Count)
system.membus.snoopFanout::min_value                0                       # Request fanout histogram (Count)
system.membus.snoopFanout::max_value                0                       # Request fanout histogram (Count)
system.membus.snoopFanout::total                70406                       # Request fanout histogram (Count)
system.membus.power_state.pwrStateResidencyTicks::UNDEFINED  10348793000                       # Cumulative time (in ticks) in various power states (Tick)
system.membus.reqLayer2.occupancy           414312000                       # Layer occupancy (ticks) (Tick)
system.membus.reqLayer2.utilization               0.0                       # Layer utilization (Ratio)
system.membus.respLayer0.occupancy          384111750                       # Layer occupancy (ticks) (Tick)
system.membus.respLayer0.utilization              0.0                       # Layer utilization (Ratio)
system.membus.snoop_filter.totRequests         139468                       # Total number of requests made to the snoop filter. (Count)
system.membus.snoop_filter.hitSingleRequests        69062                       # Number of requests hitting in the snoop filter with a single holder of the requested data. (Count)
system.membus.snoop_filter.hitMultiRequests            0                       # Number of requests hitting in the snoop filter with multiple (>1) holders of the requested data. (Count)
system.membus.snoop_filter.totSnoops                0                       # Total number of snoops made to the snoop filter. (Count)
system.membus.snoop_filter.hitSingleSnoops            0                       # Number of snoops hitting in the snoop filter with a single holder of the requested data. (Count)
system.membus.snoop_filter.hitMultiSnoops            0                       # Number of snoops hitting in the snoop filter with multiple (>1) holders of the requested data. (Count)
system.workload.inst.arm                            0                       # number of arm instructions executed (Count)
system.workload.inst.quiesce                        0                       # number of quiesce instructions executed (Count)

---------- End Simulation Statistics   ----------
