
---------- Begin Simulation Statistics ----------
simSeconds                                   0.000190                       # Number of seconds simulated (Second)
simTicks                                    189768328                       # Number of ticks simulated (Tick)
finalTick                                   189768328                       # Number of ticks from beginning of simulation (restored from checkpoints and never reset) (Tick)
simFreq                                  1000000000000                       # The number of ticks per simulated second ((Tick/Second))
hostSeconds                                      2.28                       # Real time elapsed on the host (Second)
hostTickRate                                 83412882                       # The number of ticks simulated per host second (ticks/s) ((Tick/Second))
hostMemory                                    1172476                       # Number of bytes of host memory used (Byte)
simInsts                                       566570                       # Number of instructions simulated (Count)
simOps                                        1004288                       # Number of ops (including micro ops) simulated (Count)
hostInstRate                                   249028                       # Simulator instruction rate (inst/s) ((Count/Second))
hostOpRate                                     441421                       # Simulator op (including micro ops) rate (op/s) ((Count/Second))
system.clk_domain.clock                           376                       # Clock period in ticks (Tick)
system.clk_domain.voltage_domain.voltage            1                       # Voltage in Volts (Volt)
system.cpu.numCycles                           504704                       # Number of cpu cycles simulated (Cycle)
system.cpu.numWorkItemsStarted                      0                       # Number of work items this cpu started (Count)
system.cpu.numWorkItemsCompleted                    0                       # Number of work items this cpu completed (Count)
system.cpu.instsAdded                         1114658                       # Number of instructions added to the IQ (excludes non-spec) (Count)
system.cpu.nonSpecInstsAdded                       12                       # Number of non-speculative instructions added to the IQ (Count)
system.cpu.instsIssued                        1081179                       # Number of instructions issued (Count)
system.cpu.squashedInstsIssued                    125                       # Number of squashed instructions issued (Count)
system.cpu.squashedInstsExamined               110367                       # Number of squashed instructions iterated over during squash; mainly for profiling (Count)
system.cpu.squashedOperandsExamined            144029                       # Number of squashed operands that are examined and possibly removed from graph (Count)
system.cpu.squashedNonSpecRemoved                  11                       # Number of squashed non-spec instructions that were removed (Count)
system.cpu.numIssuedDist::samples              470152                       # Number of insts issued each cycle (Count)
system.cpu.numIssuedDist::mean               2.299637                       # Number of insts issued each cycle (Count)
system.cpu.numIssuedDist::stdev              1.643964                       # Number of insts issued each cycle (Count)
system.cpu.numIssuedDist::underflows                0      0.00%      0.00% # Number of insts issued each cycle (Count)
system.cpu.numIssuedDist::0                     92111     19.59%     19.59% # Number of insts issued each cycle (Count)
system.cpu.numIssuedDist::1                     73339     15.60%     35.19% # Number of insts issued each cycle (Count)
system.cpu.numIssuedDist::2                     77065     16.39%     51.58% # Number of insts issued each cycle (Count)
system.cpu.numIssuedDist::3                    100326     21.34%     72.92% # Number of insts issued each cycle (Count)
system.cpu.numIssuedDist::4                    100620     21.40%     94.32% # Number of insts issued each cycle (Count)
system.cpu.numIssuedDist::5                     14333      3.05%     97.37% # Number of insts issued each cycle (Count)
system.cpu.numIssuedDist::6                      8711      1.85%     99.22% # Number of insts issued each cycle (Count)
system.cpu.numIssuedDist::7                      2855      0.61%     99.83% # Number of insts issued each cycle (Count)
system.cpu.numIssuedDist::8                       792      0.17%    100.00% # Number of insts issued each cycle (Count)
system.cpu.numIssuedDist::overflows                 0      0.00%    100.00% # Number of insts issued each cycle (Count)
system.cpu.numIssuedDist::min_value                 0                       # Number of insts issued each cycle (Count)
system.cpu.numIssuedDist::max_value                 8                       # Number of insts issued each cycle (Count)
system.cpu.numIssuedDist::total                470152                       # Number of insts issued each cycle (Count)
system.cpu.statFuBusy::No_OpClass                   0      0.00%      0.00% # attempts to use FU when none available (Count)
system.cpu.statFuBusy::IntAlu                    3832     97.66%     97.66% # attempts to use FU when none available (Count)
system.cpu.statFuBusy::IntMult                      0      0.00%     97.66% # attempts to use FU when none available (Count)
system.cpu.statFuBusy::IntDiv                       0      0.00%     97.66% # attempts to use FU when none available (Count)
system.cpu.statFuBusy::FloatAdd                     0      0.00%     97.66% # attempts to use FU when none available (Count)
system.cpu.statFuBusy::FloatCmp                     0      0.00%     97.66% # attempts to use FU when none available (Count)
system.cpu.statFuBusy::FloatCvt                     0      0.00%     97.66% # attempts to use FU when none available (Count)
system.cpu.statFuBusy::FloatMult                    0      0.00%     97.66% # attempts to use FU when none available (Count)
system.cpu.statFuBusy::FloatMultAcc                 0      0.00%     97.66% # attempts to use FU when none available (Count)
system.cpu.statFuBusy::FloatDiv                     0      0.00%     97.66% # attempts to use FU when none available (Count)
system.cpu.statFuBusy::FloatMisc                    0      0.00%     97.66% # attempts to use FU when none available (Count)
system.cpu.statFuBusy::FloatSqrt                    0      0.00%     97.66% # attempts to use FU when none available (Count)
system.cpu.statFuBusy::SimdAdd                      1      0.03%     97.68% # attempts to use FU when none available (Count)
system.cpu.statFuBusy::SimdAddAcc                   0      0.00%     97.68% # attempts to use FU when none available (Count)
system.cpu.statFuBusy::SimdAlu                     10      0.25%     97.94% # attempts to use FU when none available (Count)
system.cpu.statFuBusy::SimdCmp                      0      0.00%     97.94% # attempts to use FU when none available (Count)
system.cpu.statFuBusy::SimdCvt                      3      0.08%     98.01% # attempts to use FU when none available (Count)
system.cpu.statFuBusy::SimdMisc                     2      0.05%     98.06% # attempts to use FU when none available (Count)
system.cpu.statFuBusy::SimdMult                     0      0.00%     98.06% # attempts to use FU when none available (Count)
system.cpu.statFuBusy::SimdMultAcc                  0      0.00%     98.06% # attempts to use FU when none available (Count)
system.cpu.statFuBusy::SimdShift                    0      0.00%     98.06% # attempts to use FU when none available (Count)
system.cpu.statFuBusy::SimdShiftAcc                 0      0.00%     98.06% # attempts to use FU when none available (Count)
system.cpu.statFuBusy::SimdDiv                      0      0.00%     98.06% # attempts to use FU when none available (Count)
system.cpu.statFuBusy::SimdSqrt                     0      0.00%     98.06% # attempts to use FU when none available (Count)
system.cpu.statFuBusy::SimdFloatAdd                 0      0.00%     98.06% # attempts to use FU when none available (Count)
system.cpu.statFuBusy::SimdFloatAlu                 0      0.00%     98.06% # attempts to use FU when none available (Count)
system.cpu.statFuBusy::SimdFloatCmp                 0      0.00%     98.06% # attempts to use FU when none available (Count)
system.cpu.statFuBusy::SimdFloatCvt                 0      0.00%     98.06% # attempts to use FU when none available (Count)
system.cpu.statFuBusy::SimdFloatDiv                 0      0.00%     98.06% # attempts to use FU when none available (Count)
system.cpu.statFuBusy::SimdFloatMisc                0      0.00%     98.06% # attempts to use FU when none available (Count)
system.cpu.statFuBusy::SimdFloatMult                0      0.00%     98.06% # attempts to use FU when none available (Count)
system.cpu.statFuBusy::SimdFloatMultAcc             0      0.00%     98.06% # attempts to use FU when none available (Count)
system.cpu.statFuBusy::SimdFloatSqrt                0      0.00%     98.06% # attempts to use FU when none available (Count)
system.cpu.statFuBusy::SimdReduceAdd                0      0.00%     98.06% # attempts to use FU when none available (Count)
system.cpu.statFuBusy::SimdReduceAlu                0      0.00%     98.06% # attempts to use FU when none available (Count)
system.cpu.statFuBusy::SimdReduceCmp                0      0.00%     98.06% # attempts to use FU when none available (Count)
system.cpu.statFuBusy::SimdFloatReduceAdd            0      0.00%     98.06% # attempts to use FU when none available (Count)
system.cpu.statFuBusy::SimdFloatReduceCmp            0      0.00%     98.06% # attempts to use FU when none available (Count)
system.cpu.statFuBusy::SimdAes                      0      0.00%     98.06% # attempts to use FU when none available (Count)
system.cpu.statFuBusy::SimdAesMix                   0      0.00%     98.06% # attempts to use FU when none available (Count)
system.cpu.statFuBusy::SimdSha1Hash                 0      0.00%     98.06% # attempts to use FU when none available (Count)
system.cpu.statFuBusy::SimdSha1Hash2                0      0.00%     98.06% # attempts to use FU when none available (Count)
system.cpu.statFuBusy::SimdSha256Hash               0      0.00%     98.06% # attempts to use FU when none available (Count)
system.cpu.statFuBusy::SimdSha256Hash2              0      0.00%     98.06% # attempts to use FU when none available (Count)
system.cpu.statFuBusy::SimdShaSigma2                0      0.00%     98.06% # attempts to use FU when none available (Count)
system.cpu.statFuBusy::SimdShaSigma3                0      0.00%     98.06% # attempts to use FU when none available (Count)
system.cpu.statFuBusy::SimdPredAlu                  0      0.00%     98.06% # attempts to use FU when none available (Count)
system.cpu.statFuBusy::MemRead                     33      0.84%     98.90% # attempts to use FU when none available (Count)
system.cpu.statFuBusy::MemWrite                    19      0.48%     99.39% # attempts to use FU when none available (Count)
system.cpu.statFuBusy::FloatMemRead                13      0.33%     99.72% # attempts to use FU when none available (Count)
system.cpu.statFuBusy::FloatMemWrite               11      0.28%    100.00% # attempts to use FU when none available (Count)
system.cpu.statFuBusy::IprAccess                    0      0.00%    100.00% # attempts to use FU when none available (Count)
system.cpu.statFuBusy::InstPrefetch                 0      0.00%    100.00% # attempts to use FU when none available (Count)
system.cpu.statIssuedInstType_0::No_OpClass         1094      0.10%      0.10% # Number of instructions issued per FU type, per thread (Count)
system.cpu.statIssuedInstType_0::IntAlu       1038688     96.07%     96.17% # Number of instructions issued per FU type, per thread (Count)
system.cpu.statIssuedInstType_0::IntMult          533      0.05%     96.22% # Number of instructions issued per FU type, per thread (Count)
system.cpu.statIssuedInstType_0::IntDiv            21      0.00%     96.22% # Number of instructions issued per FU type, per thread (Count)
system.cpu.statIssuedInstType_0::FloatAdd          141      0.01%     96.24% # Number of instructions issued per FU type, per thread (Count)
system.cpu.statIssuedInstType_0::FloatCmp            0      0.00%     96.24% # Number of instructions issued per FU type, per thread (Count)
system.cpu.statIssuedInstType_0::FloatCvt            0      0.00%     96.24% # Number of instructions issued per FU type, per thread (Count)
system.cpu.statIssuedInstType_0::FloatMult            0      0.00%     96.24% # Number of instructions issued per FU type, per thread (Count)
system.cpu.statIssuedInstType_0::FloatMultAcc            0      0.00%     96.24% # Number of instructions issued per FU type, per thread (Count)
system.cpu.statIssuedInstType_0::FloatDiv            0      0.00%     96.24% # Number of instructions issued per FU type, per thread (Count)
system.cpu.statIssuedInstType_0::FloatMisc            0      0.00%     96.24% # Number of instructions issued per FU type, per thread (Count)
system.cpu.statIssuedInstType_0::FloatSqrt            0      0.00%     96.24% # Number of instructions issued per FU type, per thread (Count)
system.cpu.statIssuedInstType_0::SimdAdd         1083      0.10%     96.34% # Number of instructions issued per FU type, per thread (Count)
system.cpu.statIssuedInstType_0::SimdAddAcc            0      0.00%     96.34% # Number of instructions issued per FU type, per thread (Count)
system.cpu.statIssuedInstType_0::SimdAlu          171      0.02%     96.35% # Number of instructions issued per FU type, per thread (Count)
system.cpu.statIssuedInstType_0::SimdCmp           18      0.00%     96.35% # Number of instructions issued per FU type, per thread (Count)
system.cpu.statIssuedInstType_0::SimdCvt           80      0.01%     96.36% # Number of instructions issued per FU type, per thread (Count)
system.cpu.statIssuedInstType_0::SimdMisc          255      0.02%     96.38% # Number of instructions issued per FU type, per thread (Count)
system.cpu.statIssuedInstType_0::SimdMult            0      0.00%     96.38% # Number of instructions issued per FU type, per thread (Count)
system.cpu.statIssuedInstType_0::SimdMultAcc            0      0.00%     96.38% # Number of instructions issued per FU type, per thread (Count)
system.cpu.statIssuedInstType_0::SimdShift            0      0.00%     96.38% # Number of instructions issued per FU type, per thread (Count)
system.cpu.statIssuedInstType_0::SimdShiftAcc            0      0.00%     96.38% # Number of instructions issued per FU type, per thread (Count)
system.cpu.statIssuedInstType_0::SimdDiv            0      0.00%     96.38% # Number of instructions issued per FU type, per thread (Count)
system.cpu.statIssuedInstType_0::SimdSqrt            0      0.00%     96.38% # Number of instructions issued per FU type, per thread (Count)
system.cpu.statIssuedInstType_0::SimdFloatAdd            0      0.00%     96.38% # Number of instructions issued per FU type, per thread (Count)
system.cpu.statIssuedInstType_0::SimdFloatAlu            0      0.00%     96.38% # Number of instructions issued per FU type, per thread (Count)
system.cpu.statIssuedInstType_0::SimdFloatCmp            0      0.00%     96.38% # Number of instructions issued per FU type, per thread (Count)
system.cpu.statIssuedInstType_0::SimdFloatCvt           15      0.00%     96.39% # Number of instructions issued per FU type, per thread (Count)
system.cpu.statIssuedInstType_0::SimdFloatDiv            0      0.00%     96.39% # Number of instructions issued per FU type, per thread (Count)
system.cpu.statIssuedInstType_0::SimdFloatMisc            0      0.00%     96.39% # Number of instructions issued per FU type, per thread (Count)
system.cpu.statIssuedInstType_0::SimdFloatMult           16      0.00%     96.39% # Number of instructions issued per FU type, per thread (Count)
system.cpu.statIssuedInstType_0::SimdFloatMultAcc            0      0.00%     96.39% # Number of instructions issued per FU type, per thread (Count)
system.cpu.statIssuedInstType_0::SimdFloatSqrt            0      0.00%     96.39% # Number of instructions issued per FU type, per thread (Count)
system.cpu.statIssuedInstType_0::SimdReduceAdd            0      0.00%     96.39% # Number of instructions issued per FU type, per thread (Count)
system.cpu.statIssuedInstType_0::SimdReduceAlu            0      0.00%     96.39% # Number of instructions issued per FU type, per thread (Count)
system.cpu.statIssuedInstType_0::SimdReduceCmp            0      0.00%     96.39% # Number of instructions issued per FU type, per thread (Count)
system.cpu.statIssuedInstType_0::SimdFloatReduceAdd            0      0.00%     96.39% # Number of instructions issued per FU type, per thread (Count)
system.cpu.statIssuedInstType_0::SimdFloatReduceCmp            0      0.00%     96.39% # Number of instructions issued per FU type, per thread (Count)
system.cpu.statIssuedInstType_0::SimdAes            0      0.00%     96.39% # Number of instructions issued per FU type, per thread (Count)
system.cpu.statIssuedInstType_0::SimdAesMix            0      0.00%     96.39% # Number of instructions issued per FU type, per thread (Count)
system.cpu.statIssuedInstType_0::SimdSha1Hash            0      0.00%     96.39% # Number of instructions issued per FU type, per thread (Count)
system.cpu.statIssuedInstType_0::SimdSha1Hash2            0      0.00%     96.39% # Number of instructions issued per FU type, per thread (Count)
system.cpu.statIssuedInstType_0::SimdSha256Hash            0      0.00%     96.39% # Number of instructions issued per FU type, per thread (Count)
system.cpu.statIssuedInstType_0::SimdSha256Hash2            0      0.00%     96.39% # Number of instructions issued per FU type, per thread (Count)
system.cpu.statIssuedInstType_0::SimdShaSigma2            0      0.00%     96.39% # Number of instructions issued per FU type, per thread (Count)
system.cpu.statIssuedInstType_0::SimdShaSigma3            0      0.00%     96.39% # Number of instructions issued per FU type, per thread (Count)
system.cpu.statIssuedInstType_0::SimdPredAlu            0      0.00%     96.39% # Number of instructions issued per FU type, per thread (Count)
system.cpu.statIssuedInstType_0::MemRead        18263      1.69%     98.08% # Number of instructions issued per FU type, per thread (Count)
system.cpu.statIssuedInstType_0::MemWrite        18932      1.75%     99.83% # Number of instructions issued per FU type, per thread (Count)
system.cpu.statIssuedInstType_0::FloatMemRead          227      0.02%     99.85% # Number of instructions issued per FU type, per thread (Count)
system.cpu.statIssuedInstType_0::FloatMemWrite         1642      0.15%    100.00% # Number of instructions issued per FU type, per thread (Count)
system.cpu.statIssuedInstType_0::IprAccess            0      0.00%    100.00% # Number of instructions issued per FU type, per thread (Count)
system.cpu.statIssuedInstType_0::InstPrefetch            0      0.00%    100.00% # Number of instructions issued per FU type, per thread (Count)
system.cpu.statIssuedInstType_0::total        1081179                       # Number of instructions issued per FU type, per thread (Count)
system.cpu.issueRate                         2.142204                       # Inst issue rate ((Count/Cycle))
system.cpu.fuBusy                                3924                       # FU busy when requested (Count)
system.cpu.fuBusyRate                        0.003629                       # FU busy rate (busy events/executed inst) ((Count/Count))
system.cpu.intInstQueueReads                  2626963                       # Number of integer instruction queue reads (Count)
system.cpu.intInstQueueWrites                 1219202                       # Number of integer instruction queue writes (Count)
system.cpu.intInstQueueWakeupAccesses         1062027                       # Number of integer instruction queue wakeup accesses (Count)
system.cpu.fpInstQueueReads                      9595                       # Number of floating instruction queue reads (Count)
system.cpu.fpInstQueueWrites                     5849                       # Number of floating instruction queue writes (Count)
system.cpu.fpInstQueueWakeupAccesses             4577                       # Number of floating instruction queue wakeup accesses (Count)
system.cpu.vecInstQueueReads                        0                       # Number of vector instruction queue reads (Count)
system.cpu.vecInstQueueWrites                       0                       # Number of vector instruction queue writes (Count)
system.cpu.vecInstQueueWakeupAccesses               0                       # Number of vector instruction queue wakeup accesses (Count)
system.cpu.intAluAccesses                     1079197                       # Number of integer alu accesses (Count)
system.cpu.fpAluAccesses                         4812                       # Number of floating point alu accesses (Count)
system.cpu.vecAluAccesses                           0                       # Number of vector alu accesses (Count)
system.cpu.idleCycles                               0                       # Number of cycles IEW is idle (Cycle)
system.cpu.squashCycles                          5661                       # Number of cycles IEW is squashing (Cycle)
system.cpu.blockCycles                          10696                       # Number of cycles IEW is blocking (Cycle)
system.cpu.unblockCycles                        20163                       # Number of cycles IEW is unblocking (Cycle)
system.cpu.dispatchedInsts                    1114670                       # Number of instructions dispatched to IQ (Count)
system.cpu.dispSquashedInsts                      160                       # Number of squashed instructions skipped by dispatch (Count)
system.cpu.dispLoadInsts                        19563                       # Number of dispatched load instructions (Count)
system.cpu.dispStoreInsts                       21576                       # Number of dispatched store instructions (Count)
system.cpu.dispNonSpecInsts                         6                       # Number of dispatched non-speculative instructions (Count)
system.cpu.iqFullEvents                             0                       # Number of times the IQ has become full, causing a stall (Count)
system.cpu.lsqFullEvents                        20023                       # Number of times the LSQ has become full, causing a stall (Count)
system.cpu.memOrderViolationEvents                 14                       # Number of memory order violations (Count)
system.cpu.predictedTakenIncorrect               3321                       # Number of branches that were predicted taken incorrectly (Count)
system.cpu.predictedNotTakenIncorrect            3322                       # Number of branches that were predicted not taken incorrectly (Count)
system.cpu.branchMispredicts                     6643                       # Number of branch mispredicts detected at execute (Count)
system.cpu.iqFullEvents_ra                          0                       # Number of times the IQ has become full during runahead, causing a stall (Count)
system.cpu.numInsts                           1069648                       # Number of executed instructions (Count)
system.cpu.loadInsts                            17748                       # Number of load instructions executed (Count)
system.cpu.numSquashedInsts                     11530                       # Number of squashed instructions skipped in execute (Count)
system.cpu.numSwp                                   0                       # Number of swp insts executed (Count)
system.cpu.numNop                                   0                       # Number of nop insts executed (Count)
system.cpu.numRefs                              38645                       # Number of memory reference insts executed (Count)
system.cpu.numBranches                         151013                       # Number of branches executed (Count)
system.cpu.numStoreInsts                        20897                       # Number of stores executed (Count)
system.cpu.numRate                           2.119357                       # Inst execution rate ((Count/Cycle))
system.cpu.loadsRA                                443                       # Number of load instructions executed in runahead mode (Count)
system.cpu.instsToCommit                      1067641                       # Cumulative count of insts sent to commit (Count)
system.cpu.writebackCount                     1066604                       # Cumulative count of insts written-back (Count)
system.cpu.producerInst                        873730                       # Number of instructions producing a value (Count)
system.cpu.consumerInst                       1445622                       # Number of instructions consuming a value (Count)
system.cpu.wbRate                            2.113326                       # Insts written-back per cycle ((Count/Cycle))
system.cpu.wbFanout                          0.604397                       # Average fanout of values written-back ((Count/Count))
system.cpu.timesIdled                             312                       # Number of times that the entire CPU went into an idle state and unscheduled itself (Count)
system.cpu.idleCycles                           34552                       # Total number of cycles that the CPU has spent unscheduled due to idling (Cycle)
system.cpu.committedInsts                      566570                       # Number of Instructions Simulated (Count)
system.cpu.committedOps                       1004288                       # Number of Ops (including micro ops) Simulated (Count)
system.cpu.cpi                               0.890806                       # CPI: Cycles Per Instruction ((Cycle/Count))
system.cpu.totalCpi                          0.890806                       # CPI: Total CPI of All Threads ((Cycle/Count))
system.cpu.ipc                               1.122579                       # IPC: Instructions Per Cycle ((Count/Cycle))
system.cpu.totalIpc                          1.122579                       # IPC: Total IPC of All Threads ((Count/Cycle))
system.cpu.intRegfileReads                    1401626                       # Number of integer regfile reads (Count)
system.cpu.intRegfileWrites                    892202                       # Number of integer regfile writes (Count)
system.cpu.fpRegfileReads                        8135                       # Number of floating regfile reads (Count)
system.cpu.fpRegfileWrites                       2931                       # Number of floating regfile writes (Count)
system.cpu.ccRegfileReads                      924251                       # number of cc regfile reads (Count)
system.cpu.ccRegfileWrites                     478914                       # number of cc regfile writes (Count)
system.cpu.miscRegfileReads                    348289                       # number of misc regfile reads (Count)
system.cpu.robFull                                520                       # Number of times that the ROB becomes full (Count)
system.cpu.enterRA                                 76                       # Number of times the CPU enters runahead (Count)
system.cpu.fetchedRA                             6470                       # Number of instructions fetched in runahead mode. (Count)
system.cpu.totalCyclesRA                         6661                       # total number of cycles the CPU spends in runahead (Cycle)
system.cpu.cyclesAvgRA                         87.645                       # average number of cycles the CPU spends in runahead ((Cycle/Count))
system.cpu.cyclesRobEmptyRA                      4450                       # total number of cycles when ROB would be empty in runahead (Cycle)
system.cpu.pctRobEmptyRA                       66.807                       # percentage of cycles spent in runahead, when ROB would be empty (Ratio)
system.cpu.totalInsertedRA                       5986                       # total number of instructions inserted into ROB in runahead (Count)
system.cpu.insertedAvgRA                       78.763                       # average number of instructions inserted into ROB in runahead (Ratio)
system.cpu.maxAtRobHd                               9                       # maximum number of cycles one instruction spends at the head of ROB in runahead (Count)
system.cpu.totalDecodedRA                        5941                       # total number of instructions decoded in runahead (Count)
system.cpu.decodedAvgRA                        78.171                       # average number of instructions decoded in runahead (Ratio)
system.cpu.iqfull_whenenterra                       0                       # Number of times that iq is full when enter runahead (Count)
system.cpu.MemDepUnit__0.insertedLoads          19563                       # Number of loads inserted to the mem dependence unit. (Count)
system.cpu.MemDepUnit__0.insertedStores         21576                       # Number of stores inserted to the mem dependence unit. (Count)
system.cpu.MemDepUnit__0.conflictingLoads         6184                       # Number of conflicting loads. (Count)
system.cpu.MemDepUnit__0.conflictingStores         5481                       # Number of conflicting stores. (Count)
system.cpu.MemDepUnit__1.insertedLoads              0                       # Number of loads inserted to the mem dependence unit. (Count)
system.cpu.MemDepUnit__1.insertedStores             0                       # Number of stores inserted to the mem dependence unit. (Count)
system.cpu.MemDepUnit__1.conflictingLoads            0                       # Number of conflicting loads. (Count)
system.cpu.MemDepUnit__1.conflictingStores            0                       # Number of conflicting stores. (Count)
system.cpu.MemDepUnit__2.insertedLoads              0                       # Number of loads inserted to the mem dependence unit. (Count)
system.cpu.MemDepUnit__2.insertedStores             0                       # Number of stores inserted to the mem dependence unit. (Count)
system.cpu.MemDepUnit__2.conflictingLoads            0                       # Number of conflicting loads. (Count)
system.cpu.MemDepUnit__2.conflictingStores            0                       # Number of conflicting stores. (Count)
system.cpu.MemDepUnit__3.insertedLoads              0                       # Number of loads inserted to the mem dependence unit. (Count)
system.cpu.MemDepUnit__3.insertedStores             0                       # Number of stores inserted to the mem dependence unit. (Count)
system.cpu.MemDepUnit__3.conflictingLoads            0                       # Number of conflicting loads. (Count)
system.cpu.MemDepUnit__3.conflictingStores            0                       # Number of conflicting stores. (Count)
system.cpu.branchPred.lookups                  172114                       # Number of BP lookups (Count)
system.cpu.branchPred.condPredicted            165685                       # Number of conditional branches predicted (Count)
system.cpu.branchPred.condIncorrect              5600                       # Number of conditional branches incorrect (Count)
system.cpu.branchPred.BTBLookups               106559                       # Number of BTB lookups (Count)
system.cpu.branchPred.BTBHits                  105604                       # Number of BTB hits (Count)
system.cpu.branchPred.BTBHitRatio            0.991038                       # BTB Hit Ratio (Ratio)
system.cpu.branchPred.RASUsed                     651                       # Number of times the RAS was used to get a target. (Count)
system.cpu.branchPred.RASIncorrect                  0                       # Number of incorrect RAS predictions. (Count)
system.cpu.branchPred.indirectLookups             526                       # Number of indirect predictor lookups. (Count)
system.cpu.branchPred.indirectHits                 24                       # Number of indirect target hits. (Count)
system.cpu.branchPred.indirectMisses              502                       # Number of indirect misses. (Count)
system.cpu.branchPred.indirectMispredicted           95                       # Number of mispredicted indirect branches. (Count)
system.cpu.commit.commitSquashedInsts          101763                       # The number of squashed insts skipped by commit (Count)
system.cpu.commit.branchMispredicts              5557                       # The number of times a branch was mispredicted (Count)
system.cpu.commit.numCommittedDist::samples       453795                       # Number of insts commited each cycle (Count)
system.cpu.commit.numCommittedDist::mean     2.219214                       # Number of insts commited each cycle (Count)
system.cpu.commit.numCommittedDist::stdev     2.242689                       # Number of insts commited each cycle (Count)
system.cpu.commit.numCommittedDist::underflows            0      0.00%      0.00% # Number of insts commited each cycle (Count)
system.cpu.commit.numCommittedDist::0          106840     23.54%     23.54% # Number of insts commited each cycle (Count)
system.cpu.commit.numCommittedDist::1          170007     37.46%     61.01% # Number of insts commited each cycle (Count)
system.cpu.commit.numCommittedDist::2            9588      2.11%     63.12% # Number of insts commited each cycle (Count)
system.cpu.commit.numCommittedDist::3           19699      4.34%     67.46% # Number of insts commited each cycle (Count)
system.cpu.commit.numCommittedDist::4           46669     10.28%     77.75% # Number of insts commited each cycle (Count)
system.cpu.commit.numCommittedDist::5           74985     16.52%     94.27% # Number of insts commited each cycle (Count)
system.cpu.commit.numCommittedDist::6            4467      0.98%     95.25% # Number of insts commited each cycle (Count)
system.cpu.commit.numCommittedDist::7            1935      0.43%     95.68% # Number of insts commited each cycle (Count)
system.cpu.commit.numCommittedDist::8           19605      4.32%    100.00% # Number of insts commited each cycle (Count)
system.cpu.commit.numCommittedDist::overflows            0      0.00%    100.00% # Number of insts commited each cycle (Count)
system.cpu.commit.numCommittedDist::min_value            0                       # Number of insts commited each cycle (Count)
system.cpu.commit.numCommittedDist::max_value            8                       # Number of insts commited each cycle (Count)
system.cpu.commit.numCommittedDist::total       453795                       # Number of insts commited each cycle (Count)
system.cpu.commit.instsCommitted               566570                       # Number of instructions committed (Count)
system.cpu.commit.opsCommitted                1004288                       # Number of ops (including micro ops) committed (Count)
system.cpu.commit.memRefs                       33956                       # Number of memory references committed (Count)
system.cpu.commit.loads                         14655                       # Number of loads committed (Count)
system.cpu.commit.amos                              0                       # Number of atomic instructions committed (Count)
system.cpu.commit.membars                           0                       # Number of memory barriers committed (Count)
system.cpu.commit.branches                     144597                       # Number of branches committed (Count)
system.cpu.commit.vectorInstructions                0                       # Number of committed Vector instructions. (Count)
system.cpu.commit.floating                       4259                       # Number of committed floating point instructions. (Count)
system.cpu.commit.integer                     1001091                       # Number of committed integer instructions. (Count)
system.cpu.commit.functionCalls                   286                       # Number of function calls committed. (Count)
system.cpu.commit.committedInstType_0::No_OpClass          500      0.05%      0.05% # Class of committed instruction (Count)
system.cpu.commit.committedInstType_0::IntAlu       967674     96.35%     96.40% # Class of committed instruction (Count)
system.cpu.commit.committedInstType_0::IntMult          522      0.05%     96.46% # Class of committed instruction (Count)
system.cpu.commit.committedInstType_0::IntDiv           21      0.00%     96.46% # Class of committed instruction (Count)
system.cpu.commit.committedInstType_0::FloatAdd          137      0.01%     96.47% # Class of committed instruction (Count)
system.cpu.commit.committedInstType_0::FloatCmp            0      0.00%     96.47% # Class of committed instruction (Count)
system.cpu.commit.committedInstType_0::FloatCvt            0      0.00%     96.47% # Class of committed instruction (Count)
system.cpu.commit.committedInstType_0::FloatMult            0      0.00%     96.47% # Class of committed instruction (Count)
system.cpu.commit.committedInstType_0::FloatMultAcc            0      0.00%     96.47% # Class of committed instruction (Count)
system.cpu.commit.committedInstType_0::FloatDiv            0      0.00%     96.47% # Class of committed instruction (Count)
system.cpu.commit.committedInstType_0::FloatMisc            0      0.00%     96.47% # Class of committed instruction (Count)
system.cpu.commit.committedInstType_0::FloatSqrt            0      0.00%     96.47% # Class of committed instruction (Count)
system.cpu.commit.committedInstType_0::SimdAdd         1024      0.10%     96.57% # Class of committed instruction (Count)
system.cpu.commit.committedInstType_0::SimdAddAcc            0      0.00%     96.57% # Class of committed instruction (Count)
system.cpu.commit.committedInstType_0::SimdAlu          100      0.01%     96.58% # Class of committed instruction (Count)
system.cpu.commit.committedInstType_0::SimdCmp           12      0.00%     96.58% # Class of committed instruction (Count)
system.cpu.commit.committedInstType_0::SimdCvt           74      0.01%     96.59% # Class of committed instruction (Count)
system.cpu.commit.committedInstType_0::SimdMisc          244      0.02%     96.62% # Class of committed instruction (Count)
system.cpu.commit.committedInstType_0::SimdMult            0      0.00%     96.62% # Class of committed instruction (Count)
system.cpu.commit.committedInstType_0::SimdMultAcc            0      0.00%     96.62% # Class of committed instruction (Count)
system.cpu.commit.committedInstType_0::SimdShift            0      0.00%     96.62% # Class of committed instruction (Count)
system.cpu.commit.committedInstType_0::SimdShiftAcc            0      0.00%     96.62% # Class of committed instruction (Count)
system.cpu.commit.committedInstType_0::SimdDiv            0      0.00%     96.62% # Class of committed instruction (Count)
system.cpu.commit.committedInstType_0::SimdSqrt            0      0.00%     96.62% # Class of committed instruction (Count)
system.cpu.commit.committedInstType_0::SimdFloatAdd            0      0.00%     96.62% # Class of committed instruction (Count)
system.cpu.commit.committedInstType_0::SimdFloatAlu            0      0.00%     96.62% # Class of committed instruction (Count)
system.cpu.commit.committedInstType_0::SimdFloatCmp            0      0.00%     96.62% # Class of committed instruction (Count)
system.cpu.commit.committedInstType_0::SimdFloatCvt           12      0.00%     96.62% # Class of committed instruction (Count)
system.cpu.commit.committedInstType_0::SimdFloatDiv            0      0.00%     96.62% # Class of committed instruction (Count)
system.cpu.commit.committedInstType_0::SimdFloatMisc            0      0.00%     96.62% # Class of committed instruction (Count)
system.cpu.commit.committedInstType_0::SimdFloatMult           12      0.00%     96.62% # Class of committed instruction (Count)
system.cpu.commit.committedInstType_0::SimdFloatMultAcc            0      0.00%     96.62% # Class of committed instruction (Count)
system.cpu.commit.committedInstType_0::SimdFloatSqrt            0      0.00%     96.62% # Class of committed instruction (Count)
system.cpu.commit.committedInstType_0::SimdReduceAdd            0      0.00%     96.62% # Class of committed instruction (Count)
system.cpu.commit.committedInstType_0::SimdReduceAlu            0      0.00%     96.62% # Class of committed instruction (Count)
system.cpu.commit.committedInstType_0::SimdReduceCmp            0      0.00%     96.62% # Class of committed instruction (Count)
system.cpu.commit.committedInstType_0::SimdFloatReduceAdd            0      0.00%     96.62% # Class of committed instruction (Count)
system.cpu.commit.committedInstType_0::SimdFloatReduceCmp            0      0.00%     96.62% # Class of committed instruction (Count)
system.cpu.commit.committedInstType_0::SimdAes            0      0.00%     96.62% # Class of committed instruction (Count)
system.cpu.commit.committedInstType_0::SimdAesMix            0      0.00%     96.62% # Class of committed instruction (Count)
system.cpu.commit.committedInstType_0::SimdSha1Hash            0      0.00%     96.62% # Class of committed instruction (Count)
system.cpu.commit.committedInstType_0::SimdSha1Hash2            0      0.00%     96.62% # Class of committed instruction (Count)
system.cpu.commit.committedInstType_0::SimdSha256Hash            0      0.00%     96.62% # Class of committed instruction (Count)
system.cpu.commit.committedInstType_0::SimdSha256Hash2            0      0.00%     96.62% # Class of committed instruction (Count)
system.cpu.commit.committedInstType_0::SimdShaSigma2            0      0.00%     96.62% # Class of committed instruction (Count)
system.cpu.commit.committedInstType_0::SimdShaSigma3            0      0.00%     96.62% # Class of committed instruction (Count)
system.cpu.commit.committedInstType_0::SimdPredAlu            0      0.00%     96.62% # Class of committed instruction (Count)
system.cpu.commit.committedInstType_0::MemRead        14556      1.45%     98.07% # Class of committed instruction (Count)
system.cpu.commit.committedInstType_0::MemWrite        17811      1.77%     99.84% # Class of committed instruction (Count)
system.cpu.commit.committedInstType_0::FloatMemRead           99      0.01%     99.85% # Class of committed instruction (Count)
system.cpu.commit.committedInstType_0::FloatMemWrite         1490      0.15%    100.00% # Class of committed instruction (Count)
system.cpu.commit.committedInstType_0::IprAccess            0      0.00%    100.00% # Class of committed instruction (Count)
system.cpu.commit.committedInstType_0::InstPrefetch            0      0.00%    100.00% # Class of committed instruction (Count)
system.cpu.commit.committedInstType_0::total      1004288                       # Class of committed instruction (Count)
system.cpu.commit.commitEligibleSamples         19605                       # number cycles where commit BW limit reached (Cycle)
system.cpu.dcache.demandHits::cpu.data          34836                       # number of demand (read+write) hits (Count)
system.cpu.dcache.demandHits::total             34836                       # number of demand (read+write) hits (Count)
system.cpu.dcache.overallHits::cpu.data         34836                       # number of overall hits (Count)
system.cpu.dcache.overallHits::total            34836                       # number of overall hits (Count)
system.cpu.dcache.demandMisses::cpu.data          628                       # number of demand (read+write) misses (Count)
system.cpu.dcache.demandMisses::total             628                       # number of demand (read+write) misses (Count)
system.cpu.dcache.overallMisses::cpu.data          628                       # number of overall misses (Count)
system.cpu.dcache.overallMisses::total            628                       # number of overall misses (Count)
system.cpu.dcache.demandMissLatency::cpu.data     35507559                       # number of demand (read+write) miss ticks (Tick)
system.cpu.dcache.demandMissLatency::total     35507559                       # number of demand (read+write) miss ticks (Tick)
system.cpu.dcache.overallMissLatency::cpu.data     35507559                       # number of overall miss ticks (Tick)
system.cpu.dcache.overallMissLatency::total     35507559                       # number of overall miss ticks (Tick)
system.cpu.dcache.demandAccesses::cpu.data        35464                       # number of demand (read+write) accesses (Count)
system.cpu.dcache.demandAccesses::total         35464                       # number of demand (read+write) accesses (Count)
system.cpu.dcache.overallAccesses::cpu.data        35464                       # number of overall (read+write) accesses (Count)
system.cpu.dcache.overallAccesses::total        35464                       # number of overall (read+write) accesses (Count)
system.cpu.dcache.demandMissRate::cpu.data     0.017708                       # miss rate for demand accesses (Ratio)
system.cpu.dcache.demandMissRate::total      0.017708                       # miss rate for demand accesses (Ratio)
system.cpu.dcache.overallMissRate::cpu.data     0.017708                       # miss rate for overall accesses (Ratio)
system.cpu.dcache.overallMissRate::total     0.017708                       # miss rate for overall accesses (Ratio)
system.cpu.dcache.demandAvgMissLatency::cpu.data 56540.699045                       # average overall miss latency ((Cycle/Count))
system.cpu.dcache.demandAvgMissLatency::total 56540.699045                       # average overall miss latency ((Cycle/Count))
system.cpu.dcache.overallAvgMissLatency::cpu.data 56540.699045                       # average overall miss latency ((Cycle/Count))
system.cpu.dcache.overallAvgMissLatency::total 56540.699045                       # average overall miss latency ((Cycle/Count))
system.cpu.dcache.blockedCycles::no_mshrs          972                       # number of cycles access was blocked (Cycle)
system.cpu.dcache.blockedCycles::no_targets           41                       # number of cycles access was blocked (Cycle)
system.cpu.dcache.blockedCauses::no_mshrs           17                       # number of times access was blocked (Count)
system.cpu.dcache.blockedCauses::no_targets            1                       # number of times access was blocked (Count)
system.cpu.dcache.avgBlocked::no_mshrs      57.176471                       # average number of cycles each access was blocked ((Cycle/Count))
system.cpu.dcache.avgBlocked::no_targets           41                       # average number of cycles each access was blocked ((Cycle/Count))
system.cpu.dcache.demandMshrHits::cpu.data          237                       # number of demand (read+write) MSHR hits (Count)
system.cpu.dcache.demandMshrHits::total           237                       # number of demand (read+write) MSHR hits (Count)
system.cpu.dcache.overallMshrHits::cpu.data          237                       # number of overall MSHR hits (Count)
system.cpu.dcache.overallMshrHits::total          237                       # number of overall MSHR hits (Count)
system.cpu.dcache.demandMshrMisses::cpu.data          391                       # number of demand (read+write) MSHR misses (Count)
system.cpu.dcache.demandMshrMisses::total          391                       # number of demand (read+write) MSHR misses (Count)
system.cpu.dcache.overallMshrMisses::cpu.data          391                       # number of overall MSHR misses (Count)
system.cpu.dcache.overallMshrMisses::total          391                       # number of overall MSHR misses (Count)
system.cpu.dcache.demandMshrMissLatency::cpu.data     23699655                       # number of demand (read+write) MSHR miss ticks (Tick)
system.cpu.dcache.demandMshrMissLatency::total     23699655                       # number of demand (read+write) MSHR miss ticks (Tick)
system.cpu.dcache.overallMshrMissLatency::cpu.data     23699655                       # number of overall MSHR miss ticks (Tick)
system.cpu.dcache.overallMshrMissLatency::total     23699655                       # number of overall MSHR miss ticks (Tick)
system.cpu.dcache.demandMshrMissRate::cpu.data     0.011025                       # mshr miss ratio for demand accesses (Ratio)
system.cpu.dcache.demandMshrMissRate::total     0.011025                       # mshr miss ratio for demand accesses (Ratio)
system.cpu.dcache.overallMshrMissRate::cpu.data     0.011025                       # mshr miss ratio for overall accesses (Ratio)
system.cpu.dcache.overallMshrMissRate::total     0.011025                       # mshr miss ratio for overall accesses (Ratio)
system.cpu.dcache.demandAvgMshrMissLatency::cpu.data 60612.928389                       # average overall mshr miss latency ((Cycle/Count))
system.cpu.dcache.demandAvgMshrMissLatency::total 60612.928389                       # average overall mshr miss latency ((Cycle/Count))
system.cpu.dcache.overallAvgMshrMissLatency::cpu.data 60612.928389                       # average overall mshr miss latency ((Cycle/Count))
system.cpu.dcache.overallAvgMshrMissLatency::total 60612.928389                       # average overall mshr miss latency ((Cycle/Count))
system.cpu.dcache.replacements                      2                       # number of replacements (Count)
system.cpu.dcache.l1Miss                          265                       # number of times a miss in L1 occurred in normal mode (Count)
system.cpu.dcache.l1MissRA                        102                       # number of times a miss in L1 occurred in runahead mode (Count)
system.cpu.dcache.ReadReq.hits::cpu.data        15795                       # number of ReadReq hits (Count)
system.cpu.dcache.ReadReq.hits::total           15795                       # number of ReadReq hits (Count)
system.cpu.dcache.ReadReq.misses::cpu.data          367                       # number of ReadReq misses (Count)
system.cpu.dcache.ReadReq.misses::total           367                       # number of ReadReq misses (Count)
system.cpu.dcache.ReadReq.missLatency::cpu.data     20261512                       # number of ReadReq miss ticks (Tick)
system.cpu.dcache.ReadReq.missLatency::total     20261512                       # number of ReadReq miss ticks (Tick)
system.cpu.dcache.ReadReq.accesses::cpu.data        16162                       # number of ReadReq accesses(hits+misses) (Count)
system.cpu.dcache.ReadReq.accesses::total        16162                       # number of ReadReq accesses(hits+misses) (Count)
system.cpu.dcache.ReadReq.missRate::cpu.data     0.022708                       # miss rate for ReadReq accesses (Ratio)
system.cpu.dcache.ReadReq.missRate::total     0.022708                       # miss rate for ReadReq accesses (Ratio)
system.cpu.dcache.ReadReq.avgMissLatency::cpu.data 55208.479564                       # average ReadReq miss latency ((Tick/Count))
system.cpu.dcache.ReadReq.avgMissLatency::total 55208.479564                       # average ReadReq miss latency ((Tick/Count))
system.cpu.dcache.ReadReq.mshrHits::cpu.data          235                       # number of ReadReq MSHR hits (Count)
system.cpu.dcache.ReadReq.mshrHits::total          235                       # number of ReadReq MSHR hits (Count)
system.cpu.dcache.ReadReq.mshrMisses::cpu.data          132                       # number of ReadReq MSHR misses (Count)
system.cpu.dcache.ReadReq.mshrMisses::total          132                       # number of ReadReq MSHR misses (Count)
system.cpu.dcache.ReadReq.mshrMissLatency::cpu.data      8914208                       # number of ReadReq MSHR miss ticks (Tick)
system.cpu.dcache.ReadReq.mshrMissLatency::total      8914208                       # number of ReadReq MSHR miss ticks (Tick)
system.cpu.dcache.ReadReq.mshrMissRate::cpu.data     0.008167                       # mshr miss rate for ReadReq accesses (Ratio)
system.cpu.dcache.ReadReq.mshrMissRate::total     0.008167                       # mshr miss rate for ReadReq accesses (Ratio)
system.cpu.dcache.ReadReq.avgMshrMissLatency::cpu.data 67531.878788                       # average ReadReq mshr miss latency ((Tick/Count))
system.cpu.dcache.ReadReq.avgMshrMissLatency::total 67531.878788                       # average ReadReq mshr miss latency ((Tick/Count))
system.cpu.dcache.WriteReq.hits::cpu.data        19041                       # number of WriteReq hits (Count)
system.cpu.dcache.WriteReq.hits::total          19041                       # number of WriteReq hits (Count)
system.cpu.dcache.WriteReq.misses::cpu.data          261                       # number of WriteReq misses (Count)
system.cpu.dcache.WriteReq.misses::total          261                       # number of WriteReq misses (Count)
system.cpu.dcache.WriteReq.missLatency::cpu.data     15246047                       # number of WriteReq miss ticks (Tick)
system.cpu.dcache.WriteReq.missLatency::total     15246047                       # number of WriteReq miss ticks (Tick)
system.cpu.dcache.WriteReq.accesses::cpu.data        19302                       # number of WriteReq accesses(hits+misses) (Count)
system.cpu.dcache.WriteReq.accesses::total        19302                       # number of WriteReq accesses(hits+misses) (Count)
system.cpu.dcache.WriteReq.missRate::cpu.data     0.013522                       # miss rate for WriteReq accesses (Ratio)
system.cpu.dcache.WriteReq.missRate::total     0.013522                       # miss rate for WriteReq accesses (Ratio)
system.cpu.dcache.WriteReq.avgMissLatency::cpu.data 58413.973180                       # average WriteReq miss latency ((Tick/Count))
system.cpu.dcache.WriteReq.avgMissLatency::total 58413.973180                       # average WriteReq miss latency ((Tick/Count))
system.cpu.dcache.WriteReq.mshrHits::cpu.data            2                       # number of WriteReq MSHR hits (Count)
system.cpu.dcache.WriteReq.mshrHits::total            2                       # number of WriteReq MSHR hits (Count)
system.cpu.dcache.WriteReq.mshrMisses::cpu.data          259                       # number of WriteReq MSHR misses (Count)
system.cpu.dcache.WriteReq.mshrMisses::total          259                       # number of WriteReq MSHR misses (Count)
system.cpu.dcache.WriteReq.mshrMissLatency::cpu.data     14785447                       # number of WriteReq MSHR miss ticks (Tick)
system.cpu.dcache.WriteReq.mshrMissLatency::total     14785447                       # number of WriteReq MSHR miss ticks (Tick)
system.cpu.dcache.WriteReq.mshrMissRate::cpu.data     0.013418                       # mshr miss rate for WriteReq accesses (Ratio)
system.cpu.dcache.WriteReq.mshrMissRate::total     0.013418                       # mshr miss rate for WriteReq accesses (Ratio)
system.cpu.dcache.WriteReq.avgMshrMissLatency::cpu.data 57086.667954                       # average WriteReq mshr miss latency ((Tick/Count))
system.cpu.dcache.WriteReq.avgMshrMissLatency::total 57086.667954                       # average WriteReq mshr miss latency ((Tick/Count))
system.cpu.dcache.power_state.pwrStateResidencyTicks::UNDEFINED    189768328                       # Cumulative time (in ticks) in various power states (Tick)
system.cpu.dcache.tags.tagsInUse           335.730959                       # Average ticks per tags in use ((Tick/Count))
system.cpu.dcache.tags.totalRefs                35227                       # Total number of references to valid blocks. (Count)
system.cpu.dcache.tags.sampledRefs                391                       # Sample count of references to valid blocks. (Count)
system.cpu.dcache.tags.avgRefs              90.094629                       # Average number of references to valid blocks. ((Count/Count))
system.cpu.dcache.tags.warmupTick              146640                       # The tick when the warmup percentage was hit. (Tick)
system.cpu.dcache.tags.occupancies::cpu.data   335.730959                       # Average occupied blocks per tick, per requestor ((Count/Tick))
system.cpu.dcache.tags.avgOccs::cpu.data     0.655725                       # Average percentage of cache occupancy ((Ratio/Tick))
system.cpu.dcache.tags.avgOccs::total        0.655725                       # Average percentage of cache occupancy ((Ratio/Tick))
system.cpu.dcache.tags.occupanciesTaskId::1024          389                       # Occupied blocks per task id (Count)
system.cpu.dcache.tags.ageTaskId_1024::0           17                       # Occupied blocks per task id, per block age (Count)
system.cpu.dcache.tags.ageTaskId_1024::2          372                       # Occupied blocks per task id, per block age (Count)
system.cpu.dcache.tags.ratioOccsTaskId::1024     0.759766                       # Ratio of occupied blocks and all blocks, per task id (Ratio)
system.cpu.dcache.tags.tagAccesses             284103                       # Number of tag accesses (Count)
system.cpu.dcache.tags.dataAccesses            284103                       # Number of data accesses (Count)
system.cpu.dcache.tags.power_state.pwrStateResidencyTicks::UNDEFINED    189768328                       # Cumulative time (in ticks) in various power states (Tick)
system.cpu.decode.idleCycles                   137172                       # Number of cycles decode is idle (Cycle)
system.cpu.decode.blockedCycles                 93831                       # Number of cycles decode is blocked (Cycle)
system.cpu.decode.runCycles                    208434                       # Number of cycles decode is running (Cycle)
system.cpu.decode.unblockCycles                 25054                       # Number of cycles decode is unblocking (Cycle)
system.cpu.decode.squashCycles                   5661                       # Number of cycles decode is squashing (Cycle)
system.cpu.decode.branchResolved               103958                       # Number of times decode resolved a branch (Count)
system.cpu.decode.branchMispred                   249                       # Number of times decode detected a branch misprediction (Count)
system.cpu.decode.decodedInsts                1165552                       # Number of instructions handled by decode (Count)
system.cpu.decode.squashedInsts                  1172                       # Number of squashed instructions handled by decode (Count)
system.cpu.fetch.icacheStallCycles             143525                       # Number of cycles fetch is stalled on an Icache miss (Cycle)
system.cpu.fetch.insts                         669233                       # Number of instructions fetch has processed (Count)
system.cpu.fetch.branches                      172114                       # Number of branches that fetch encountered (Count)
system.cpu.fetch.predictedBranches             106279                       # Number of branches that fetch has predicted taken (Count)
system.cpu.fetch.cycles                        319252                       # Number of cycles fetch has run and was not squashing or blocked (Cycle)
system.cpu.fetch.squashCycles                   11802                       # Number of cycles fetch has spent squashing (Cycle)
system.cpu.fetch.miscStallCycles                  211                       # Number of cycles fetch has spent waiting on interrupts, or bad addresses, or out of MSHRs (Cycle)
system.cpu.fetch.pendingTrapStallCycles          1255                       # Number of stall cycles due to pending traps (Cycle)
system.cpu.fetch.pendingQuiesceStallCycles            8                       # Number of stall cycles due to pending quiesce instructions (Cycle)
system.cpu.fetch.cacheLines                    120252                       # Number of cache lines fetched (Count)
system.cpu.fetch.icacheSquashes                  2040                       # Number of outstanding Icache misses that were squashed (Count)
system.cpu.fetch.nisnDist::samples             470152                       # Number of instructions fetched each cycle (Total) (Count)
system.cpu.fetch.nisnDist::mean              2.533502                       # Number of instructions fetched each cycle (Total) (Count)
system.cpu.fetch.nisnDist::stdev             2.982880                       # Number of instructions fetched each cycle (Total) (Count)
system.cpu.fetch.nisnDist::underflows               0      0.00%      0.00% # Number of instructions fetched each cycle (Total) (Count)
system.cpu.fetch.nisnDist::0                   220581     46.92%     46.92% # Number of instructions fetched each cycle (Total) (Count)
system.cpu.fetch.nisnDist::1                     5239      1.11%     48.03% # Number of instructions fetched each cycle (Total) (Count)
system.cpu.fetch.nisnDist::2                    48361     10.29%     58.32% # Number of instructions fetched each cycle (Total) (Count)
system.cpu.fetch.nisnDist::3                    49315     10.49%     68.81% # Number of instructions fetched each cycle (Total) (Count)
system.cpu.fetch.nisnDist::4                    50136     10.66%     79.47% # Number of instructions fetched each cycle (Total) (Count)
system.cpu.fetch.nisnDist::5                     7562      1.61%     81.08% # Number of instructions fetched each cycle (Total) (Count)
system.cpu.fetch.nisnDist::6                     2887      0.61%     81.69% # Number of instructions fetched each cycle (Total) (Count)
system.cpu.fetch.nisnDist::7                     3019      0.64%     82.34% # Number of instructions fetched each cycle (Total) (Count)
system.cpu.fetch.nisnDist::8                    83052     17.66%    100.00% # Number of instructions fetched each cycle (Total) (Count)
system.cpu.fetch.nisnDist::overflows                0      0.00%    100.00% # Number of instructions fetched each cycle (Total) (Count)
system.cpu.fetch.nisnDist::min_value                0                       # Number of instructions fetched each cycle (Total) (Count)
system.cpu.fetch.nisnDist::max_value                8                       # Number of instructions fetched each cycle (Total) (Count)
system.cpu.fetch.nisnDist::total               470152                       # Number of instructions fetched each cycle (Total) (Count)
system.cpu.fetch.branchRate                  0.341020                       # Number of branch fetches per cycle (Ratio)
system.cpu.fetch.rate                        1.325991                       # Number of inst fetches per cycle ((Count/Cycle))
system.cpu.icache.demandHits::cpu.inst         119535                       # number of demand (read+write) hits (Count)
system.cpu.icache.demandHits::total            119535                       # number of demand (read+write) hits (Count)
system.cpu.icache.overallHits::cpu.inst        119535                       # number of overall hits (Count)
system.cpu.icache.overallHits::total           119535                       # number of overall hits (Count)
system.cpu.icache.demandMisses::cpu.inst          717                       # number of demand (read+write) misses (Count)
system.cpu.icache.demandMisses::total             717                       # number of demand (read+write) misses (Count)
system.cpu.icache.overallMisses::cpu.inst          717                       # number of overall misses (Count)
system.cpu.icache.overallMisses::total            717                       # number of overall misses (Count)
system.cpu.icache.demandMissLatency::cpu.inst     38458408                       # number of demand (read+write) miss ticks (Tick)
system.cpu.icache.demandMissLatency::total     38458408                       # number of demand (read+write) miss ticks (Tick)
system.cpu.icache.overallMissLatency::cpu.inst     38458408                       # number of overall miss ticks (Tick)
system.cpu.icache.overallMissLatency::total     38458408                       # number of overall miss ticks (Tick)
system.cpu.icache.demandAccesses::cpu.inst       120252                       # number of demand (read+write) accesses (Count)
system.cpu.icache.demandAccesses::total        120252                       # number of demand (read+write) accesses (Count)
system.cpu.icache.overallAccesses::cpu.inst       120252                       # number of overall (read+write) accesses (Count)
system.cpu.icache.overallAccesses::total       120252                       # number of overall (read+write) accesses (Count)
system.cpu.icache.demandMissRate::cpu.inst     0.005962                       # miss rate for demand accesses (Ratio)
system.cpu.icache.demandMissRate::total      0.005962                       # miss rate for demand accesses (Ratio)
system.cpu.icache.overallMissRate::cpu.inst     0.005962                       # miss rate for overall accesses (Ratio)
system.cpu.icache.overallMissRate::total     0.005962                       # miss rate for overall accesses (Ratio)
system.cpu.icache.demandAvgMissLatency::cpu.inst 53637.947001                       # average overall miss latency ((Cycle/Count))
system.cpu.icache.demandAvgMissLatency::total 53637.947001                       # average overall miss latency ((Cycle/Count))
system.cpu.icache.overallAvgMissLatency::cpu.inst 53637.947001                       # average overall miss latency ((Cycle/Count))
system.cpu.icache.overallAvgMissLatency::total 53637.947001                       # average overall miss latency ((Cycle/Count))
system.cpu.icache.blockedCycles::no_mshrs          486                       # number of cycles access was blocked (Cycle)
system.cpu.icache.blockedCycles::no_targets            0                       # number of cycles access was blocked (Cycle)
system.cpu.icache.blockedCauses::no_mshrs            5                       # number of times access was blocked (Count)
system.cpu.icache.blockedCauses::no_targets            0                       # number of times access was blocked (Count)
system.cpu.icache.avgBlocked::no_mshrs      97.200000                       # average number of cycles each access was blocked ((Cycle/Count))
system.cpu.icache.avgBlocked::no_targets          nan                       # average number of cycles each access was blocked ((Cycle/Count))
system.cpu.icache.demandMshrHits::cpu.inst          193                       # number of demand (read+write) MSHR hits (Count)
system.cpu.icache.demandMshrHits::total           193                       # number of demand (read+write) MSHR hits (Count)
system.cpu.icache.overallMshrHits::cpu.inst          193                       # number of overall MSHR hits (Count)
system.cpu.icache.overallMshrHits::total          193                       # number of overall MSHR hits (Count)
system.cpu.icache.demandMshrMisses::cpu.inst          524                       # number of demand (read+write) MSHR misses (Count)
system.cpu.icache.demandMshrMisses::total          524                       # number of demand (read+write) MSHR misses (Count)
system.cpu.icache.overallMshrMisses::cpu.inst          524                       # number of overall MSHR misses (Count)
system.cpu.icache.overallMshrMisses::total          524                       # number of overall MSHR misses (Count)
system.cpu.icache.demandMshrMissLatency::cpu.inst     30308232                       # number of demand (read+write) MSHR miss ticks (Tick)
system.cpu.icache.demandMshrMissLatency::total     30308232                       # number of demand (read+write) MSHR miss ticks (Tick)
system.cpu.icache.overallMshrMissLatency::cpu.inst     30308232                       # number of overall MSHR miss ticks (Tick)
system.cpu.icache.overallMshrMissLatency::total     30308232                       # number of overall MSHR miss ticks (Tick)
system.cpu.icache.demandMshrMissRate::cpu.inst     0.004358                       # mshr miss ratio for demand accesses (Ratio)
system.cpu.icache.demandMshrMissRate::total     0.004358                       # mshr miss ratio for demand accesses (Ratio)
system.cpu.icache.overallMshrMissRate::cpu.inst     0.004358                       # mshr miss ratio for overall accesses (Ratio)
system.cpu.icache.overallMshrMissRate::total     0.004358                       # mshr miss ratio for overall accesses (Ratio)
system.cpu.icache.demandAvgMshrMissLatency::cpu.inst 57840.137405                       # average overall mshr miss latency ((Cycle/Count))
system.cpu.icache.demandAvgMshrMissLatency::total 57840.137405                       # average overall mshr miss latency ((Cycle/Count))
system.cpu.icache.overallAvgMshrMissLatency::cpu.inst 57840.137405                       # average overall mshr miss latency ((Cycle/Count))
system.cpu.icache.overallAvgMshrMissLatency::total 57840.137405                       # average overall mshr miss latency ((Cycle/Count))
system.cpu.icache.replacements                     72                       # number of replacements (Count)
system.cpu.icache.ReadReq.hits::cpu.inst       119535                       # number of ReadReq hits (Count)
system.cpu.icache.ReadReq.hits::total          119535                       # number of ReadReq hits (Count)
system.cpu.icache.ReadReq.misses::cpu.inst          717                       # number of ReadReq misses (Count)
system.cpu.icache.ReadReq.misses::total           717                       # number of ReadReq misses (Count)
system.cpu.icache.ReadReq.missLatency::cpu.inst     38458408                       # number of ReadReq miss ticks (Tick)
system.cpu.icache.ReadReq.missLatency::total     38458408                       # number of ReadReq miss ticks (Tick)
system.cpu.icache.ReadReq.accesses::cpu.inst       120252                       # number of ReadReq accesses(hits+misses) (Count)
system.cpu.icache.ReadReq.accesses::total       120252                       # number of ReadReq accesses(hits+misses) (Count)
system.cpu.icache.ReadReq.missRate::cpu.inst     0.005962                       # miss rate for ReadReq accesses (Ratio)
system.cpu.icache.ReadReq.missRate::total     0.005962                       # miss rate for ReadReq accesses (Ratio)
system.cpu.icache.ReadReq.avgMissLatency::cpu.inst 53637.947001                       # average ReadReq miss latency ((Tick/Count))
system.cpu.icache.ReadReq.avgMissLatency::total 53637.947001                       # average ReadReq miss latency ((Tick/Count))
system.cpu.icache.ReadReq.mshrHits::cpu.inst          193                       # number of ReadReq MSHR hits (Count)
system.cpu.icache.ReadReq.mshrHits::total          193                       # number of ReadReq MSHR hits (Count)
system.cpu.icache.ReadReq.mshrMisses::cpu.inst          524                       # number of ReadReq MSHR misses (Count)
system.cpu.icache.ReadReq.mshrMisses::total          524                       # number of ReadReq MSHR misses (Count)
system.cpu.icache.ReadReq.mshrMissLatency::cpu.inst     30308232                       # number of ReadReq MSHR miss ticks (Tick)
system.cpu.icache.ReadReq.mshrMissLatency::total     30308232                       # number of ReadReq MSHR miss ticks (Tick)
system.cpu.icache.ReadReq.mshrMissRate::cpu.inst     0.004358                       # mshr miss rate for ReadReq accesses (Ratio)
system.cpu.icache.ReadReq.mshrMissRate::total     0.004358                       # mshr miss rate for ReadReq accesses (Ratio)
system.cpu.icache.ReadReq.avgMshrMissLatency::cpu.inst 57840.137405                       # average ReadReq mshr miss latency ((Tick/Count))
system.cpu.icache.ReadReq.avgMshrMissLatency::total 57840.137405                       # average ReadReq mshr miss latency ((Tick/Count))
system.cpu.icache.power_state.pwrStateResidencyTicks::UNDEFINED    189768328                       # Cumulative time (in ticks) in various power states (Tick)
system.cpu.icache.tags.tagsInUse           401.242436                       # Average ticks per tags in use ((Tick/Count))
system.cpu.icache.tags.totalRefs               120058                       # Total number of references to valid blocks. (Count)
system.cpu.icache.tags.sampledRefs                523                       # Sample count of references to valid blocks. (Count)
system.cpu.icache.tags.avgRefs             229.556405                       # Average number of references to valid blocks. ((Count/Count))
system.cpu.icache.tags.warmupTick               73696                       # The tick when the warmup percentage was hit. (Tick)
system.cpu.icache.tags.occupancies::cpu.inst   401.242436                       # Average occupied blocks per tick, per requestor ((Count/Tick))
system.cpu.icache.tags.avgOccs::cpu.inst     0.783677                       # Average percentage of cache occupancy ((Ratio/Tick))
system.cpu.icache.tags.avgOccs::total        0.783677                       # Average percentage of cache occupancy ((Ratio/Tick))
system.cpu.icache.tags.occupanciesTaskId::1024          451                       # Occupied blocks per task id (Count)
system.cpu.icache.tags.ageTaskId_1024::0           56                       # Occupied blocks per task id, per block age (Count)
system.cpu.icache.tags.ageTaskId_1024::2          395                       # Occupied blocks per task id, per block age (Count)
system.cpu.icache.tags.ratioOccsTaskId::1024     0.880859                       # Ratio of occupied blocks and all blocks, per task id (Ratio)
system.cpu.icache.tags.tagAccesses             481531                       # Number of tag accesses (Count)
system.cpu.icache.tags.dataAccesses            481531                       # Number of data accesses (Count)
system.cpu.icache.tags.power_state.pwrStateResidencyTicks::UNDEFINED    189768328                       # Cumulative time (in ticks) in various power states (Tick)
system.cpu.interrupts.clk_domain.clock           6016                       # Clock period in ticks (Tick)
system.cpu.lsq0.forwLoads                        1863                       # Number of loads that had data forwarded from stores (Count)
system.cpu.lsq0.squashedLoads                    4908                       # Number of loads squashed (Count)
system.cpu.lsq0.ignoredResponses                    1                       # Number of memory responses ignored because the instruction is squashed (Count)
system.cpu.lsq0.memOrderViolation                  14                       # Number of memory ordering violations (Count)
system.cpu.lsq0.squashedStores                   2275                       # Number of stores squashed (Count)
system.cpu.lsq0.rescheduledLoads                    1                       # Number of loads that were rescheduled (Count)
system.cpu.lsq0.blockedByCache                     16                       # Number of times an access to memory failed due to the cache being blocked (Count)
system.cpu.lsq0.loadToUse::samples              14655                       # Distribution of cycle latency between the first time a load is issued and its completion (Unspecified)
system.cpu.lsq0.loadToUse::mean              4.819925                       # Distribution of cycle latency between the first time a load is issued and its completion (Unspecified)
system.cpu.lsq0.loadToUse::stdev             4.273106                       # Distribution of cycle latency between the first time a load is issued and its completion (Unspecified)
system.cpu.lsq0.loadToUse::0-9                  14635     99.86%     99.86% # Distribution of cycle latency between the first time a load is issued and its completion (Unspecified)
system.cpu.lsq0.loadToUse::10-19                    7      0.05%     99.91% # Distribution of cycle latency between the first time a load is issued and its completion (Unspecified)
system.cpu.lsq0.loadToUse::50-59                    2      0.01%     99.92% # Distribution of cycle latency between the first time a load is issued and its completion (Unspecified)
system.cpu.lsq0.loadToUse::120-129                  1      0.01%     99.93% # Distribution of cycle latency between the first time a load is issued and its completion (Unspecified)
system.cpu.lsq0.loadToUse::130-139                  3      0.02%     99.95% # Distribution of cycle latency between the first time a load is issued and its completion (Unspecified)
system.cpu.lsq0.loadToUse::150-159                  1      0.01%     99.96% # Distribution of cycle latency between the first time a load is issued and its completion (Unspecified)
system.cpu.lsq0.loadToUse::160-169                  5      0.03%     99.99% # Distribution of cycle latency between the first time a load is issued and its completion (Unspecified)
system.cpu.lsq0.loadToUse::190-199                  1      0.01%    100.00% # Distribution of cycle latency between the first time a load is issued and its completion (Unspecified)
system.cpu.lsq0.loadToUse::min_value                2                       # Distribution of cycle latency between the first time a load is issued and its completion (Unspecified)
system.cpu.lsq0.loadToUse::max_value              190                       # Distribution of cycle latency between the first time a load is issued and its completion (Unspecified)
system.cpu.lsq0.loadToUse::total                14655                       # Distribution of cycle latency between the first time a load is issued and its completion (Unspecified)
system.cpu.mmu.dtb.rdAccesses                   18141                       # TLB accesses on read requests (Count)
system.cpu.mmu.dtb.wrAccesses                   20455                       # TLB accesses on write requests (Count)
system.cpu.mmu.dtb.rdMisses                       114                       # TLB misses on read requests (Count)
system.cpu.mmu.dtb.wrMisses                        85                       # TLB misses on write requests (Count)
system.cpu.mmu.dtb.walker.power_state.pwrStateResidencyTicks::UNDEFINED    189768328                       # Cumulative time (in ticks) in various power states (Tick)
system.cpu.mmu.itb.rdAccesses                       0                       # TLB accesses on read requests (Count)
system.cpu.mmu.itb.wrAccesses                  120475                       # TLB accesses on write requests (Count)
system.cpu.mmu.itb.rdMisses                         0                       # TLB misses on read requests (Count)
system.cpu.mmu.itb.wrMisses                       267                       # TLB misses on write requests (Count)
system.cpu.mmu.itb.walker.power_state.pwrStateResidencyTicks::UNDEFINED    189768328                       # Cumulative time (in ticks) in various power states (Tick)
system.cpu.power_state.pwrStateResidencyTicks::ON    189768328                       # Cumulative time (in ticks) in various power states (Tick)
system.cpu.rename.squashCycles                   5661                       # Number of cycles rename is squashing (Cycle)
system.cpu.rename.idleCycles                   148164                       # Number of cycles rename is idle (Cycle)
system.cpu.rename.blockCycles                   34026                       # Number of cycles rename is blocking (Cycle)
system.cpu.rename.serializeStallCycles            191                       # count of cycles rename stalled for serializing inst (Cycle)
system.cpu.rename.runCycles                    221352                       # Number of cycles rename is running (Cycle)
system.cpu.rename.unblockCycles                 60758                       # Number of cycles rename is unblocking (Cycle)
system.cpu.rename.renamedInsts                1152728                       # Number of instructions processed by rename (Count)
[...]
system.mem_ctrl.requestorReadAvgLat::cpu.inst     26456.50                       # Per-requestor read average memory access latency ((Tick/Count))
system.mem_ctrl.requestorReadAvgLat::cpu.data     28269.70                       # Per-requestor read average memory access latency ((Tick/Count))
system.mem_ctrl.dram.bytesRead::cpu.inst        33408                       # Number of bytes read from this memory (Byte)
system.mem_ctrl.dram.bytesRead::cpu.data        25024                       # Number of bytes read from this memory (Byte)
system.mem_ctrl.dram.bytesRead::total           58432                       # Number of bytes read from this memory (Byte)
system.mem_ctrl.dram.bytesInstRead::cpu.inst        33408                       # Number of instructions bytes read from this memory (Byte)
system.mem_ctrl.dram.bytesInstRead::total        33408                       # Number of instructions bytes read from this memory (Byte)
system.mem_ctrl.dram.numReads::cpu.inst           522                       # Number of read requests responded to by this memory (Count)
system.mem_ctrl.dram.numReads::cpu.data           391                       # Number of read requests responded to by this memory (Count)
system.mem_ctrl.dram.numReads::total              913                       # Number of read requests responded to by this memory (Count)
system.mem_ctrl.dram.bwRead::cpu.inst       176046237                       # Total read bandwidth from this memory ((Byte/Second))
system.mem_ctrl.dram.bwRead::cpu.data       131866051                       # Total read bandwidth from this memory ((Byte/Second))
system.mem_ctrl.dram.bwRead::total          307912288                       # Total read bandwidth from this memory ((Byte/Second))
system.mem_ctrl.dram.bwInstRead::cpu.inst    176046237                       # Instruction read bandwidth from this memory ((Byte/Second))
system.mem_ctrl.dram.bwInstRead::total      176046237                       # Instruction read bandwidth from this memory ((Byte/Second))
system.mem_ctrl.dram.bwTotal::cpu.inst      176046237                       # Total bandwidth to/from this memory ((Byte/Second))
system.mem_ctrl.dram.bwTotal::cpu.data      131866051                       # Total bandwidth to/from this memory ((Byte/Second))
system.mem_ctrl.dram.bwTotal::total         307912288                       # Total bandwidth to/from this memory ((Byte/Second))
system.mem_ctrl.dram.readBursts                   914                       # Number of DRAM read bursts (Count)
system.mem_ctrl.dram.writeBursts                    0                       # Number of DRAM write bursts (Count)
system.mem_ctrl.dram.perBankRdBursts::0            17                       # Per bank write bursts (Count)
system.mem_ctrl.dram.perBankRdBursts::1            82                       # Per bank write bursts (Count)
system.mem_ctrl.dram.perBankRdBursts::2            39                       # Per bank write bursts (Count)
system.mem_ctrl.dram.perBankRdBursts::3           146                       # Per bank write bursts (Count)
system.mem_ctrl.dram.perBankRdBursts::4           101                       # Per bank write bursts (Count)
system.mem_ctrl.dram.perBankRdBursts::5            54                       # Per bank write bursts (Count)
system.mem_ctrl.dram.perBankRdBursts::6            17                       # Per bank write bursts (Count)
system.mem_ctrl.dram.perBankRdBursts::7            76                       # Per bank write bursts (Count)
system.mem_ctrl.dram.perBankRdBursts::8           115                       # Per bank write bursts (Count)
system.mem_ctrl.dram.perBankRdBursts::9            82                       # Per bank write bursts (Count)
system.mem_ctrl.dram.perBankRdBursts::10           28                       # Per bank write bursts (Count)
system.mem_ctrl.dram.perBankRdBursts::11           40                       # Per bank write bursts (Count)
system.mem_ctrl.dram.perBankRdBursts::12            9                       # Per bank write bursts (Count)
system.mem_ctrl.dram.perBankRdBursts::13           20                       # Per bank write bursts (Count)
system.mem_ctrl.dram.perBankRdBursts::14           39                       # Per bank write bursts (Count)
system.mem_ctrl.dram.perBankRdBursts::15           49                       # Per bank write bursts (Count)
system.mem_ctrl.dram.perBankWrBursts::0             0                       # Per bank write bursts (Count)
system.mem_ctrl.dram.perBankWrBursts::1             0                       # Per bank write bursts (Count)
system.mem_ctrl.dram.perBankWrBursts::2             0                       # Per bank write bursts (Count)
system.mem_ctrl.dram.perBankWrBursts::3             0                       # Per bank write bursts (Count)
system.mem_ctrl.dram.perBankWrBursts::4             0                       # Per bank write bursts (Count)
system.mem_ctrl.dram.perBankWrBursts::5             0                       # Per bank write bursts (Count)
system.mem_ctrl.dram.perBankWrBursts::6             0                       # Per bank write bursts (Count)
system.mem_ctrl.dram.perBankWrBursts::7             0                       # Per bank write bursts (Count)
system.mem_ctrl.dram.perBankWrBursts::8             0                       # Per bank write bursts (Count)
system.mem_ctrl.dram.perBankWrBursts::9             0                       # Per bank write bursts (Count)
system.mem_ctrl.dram.perBankWrBursts::10            0                       # Per bank write bursts (Count)
system.mem_ctrl.dram.perBankWrBursts::11            0                       # Per bank write bursts (Count)
system.mem_ctrl.dram.perBankWrBursts::12            0                       # Per bank write bursts (Count)
system.mem_ctrl.dram.perBankWrBursts::13            0                       # Per bank write bursts (Count)
system.mem_ctrl.dram.perBankWrBursts::14            0                       # Per bank write bursts (Count)
system.mem_ctrl.dram.perBankWrBursts::15            0                       # Per bank write bursts (Count)
system.mem_ctrl.dram.totQLat                  7752704                       # Total ticks spent queuing (Tick)
system.mem_ctrl.dram.totBusLat                4570000                       # Total ticks spent in databus transfers (Tick)
system.mem_ctrl.dram.totMemAccLat            24890204                       # Total ticks spent from burst creation until serviced by the DRAM (Tick)
system.mem_ctrl.dram.avgQLat                  8482.17                       # Average queueing delay per DRAM burst ((Tick/Count))
system.mem_ctrl.dram.avgBusLat                5000.00                       # Average bus latency per DRAM burst ((Tick/Count))
system.mem_ctrl.dram.avgMemAccLat            27232.17                       # Average memory access latency per DRAM burst ((Tick/Count))
system.mem_ctrl.dram.readRowHits                  741                       # Number of row buffer hits during reads (Count)
system.mem_ctrl.dram.writeRowHits                   0                       # Number of row buffer hits during writes (Count)
system.mem_ctrl.dram.readRowHitRate             81.07                       # Row buffer hit rate for reads (Ratio)
system.mem_ctrl.dram.writeRowHitRate              nan                       # Row buffer hit rate for writes (Ratio)
system.mem_ctrl.dram.bytesPerActivate::samples          163                       # Bytes accessed per row activation (Byte)
system.mem_ctrl.dram.bytesPerActivate::mean   344.343558                       # Bytes accessed per row activation (Byte)
system.mem_ctrl.dram.bytesPerActivate::gmean   205.107052                       # Bytes accessed per row activation (Byte)
system.mem_ctrl.dram.bytesPerActivate::stdev   342.679463                       # Bytes accessed per row activation (Byte)
system.mem_ctrl.dram.bytesPerActivate::0-127           56     34.36%     34.36% # Bytes accessed per row activation (Byte)
system.mem_ctrl.dram.bytesPerActivate::128-255           33     20.25%     54.60% # Bytes accessed per row activation (Byte)
system.mem_ctrl.dram.bytesPerActivate::256-383           17     10.43%     65.03% # Bytes accessed per row activation (Byte)
system.mem_ctrl.dram.bytesPerActivate::384-511           17     10.43%     75.46% # Bytes accessed per row activation (Byte)
system.mem_ctrl.dram.bytesPerActivate::512-639            5      3.07%     78.53% # Bytes accessed per row activation (Byte)
system.mem_ctrl.dram.bytesPerActivate::640-767            6      3.68%     82.21% # Bytes accessed per row activation (Byte)
system.mem_ctrl.dram.bytesPerActivate::768-895            3      1.84%     84.05% # Bytes accessed per row activation (Byte)
system.mem_ctrl.dram.bytesPerActivate::896-1023            1      0.61%     84.66% # Bytes accessed per row activation (Byte)
system.mem_ctrl.dram.bytesPerActivate::1024-1151           25     15.34%    100.00% # Bytes accessed per row activation (Byte)
system.mem_ctrl.dram.bytesPerActivate::total          163                       # Bytes accessed per row activation (Byte)
system.mem_ctrl.dram.bytesRead                  58496                       # Total number of bytes read from DRAM (Byte)
system.mem_ctrl.dram.bytesWritten                   0                       # Total number of bytes written to DRAM (Byte)
system.mem_ctrl.dram.avgRdBW               308.249541                       # Average DRAM read bandwidth in MiBytes/s ((Byte/Second))
system.mem_ctrl.dram.avgWrBW                        0                       # Average DRAM write bandwidth in MiBytes/s ((Byte/Second))
system.mem_ctrl.dram.peakBW                  12800.00                       # Theoretical peak bandwidth in MiByte/s ((Byte/Second))
system.mem_ctrl.dram.busUtil                     2.41                       # Data bus utilization in percentage (Ratio)
system.mem_ctrl.dram.busUtilRead                 2.41                       # Data bus utilization in percentage for reads (Ratio)
system.mem_ctrl.dram.busUtilWrite                0.00                       # Data bus utilization in percentage for writes (Ratio)
system.mem_ctrl.dram.pageHitRate                81.07                       # Row buffer hit rate, read and write combined (Ratio)
system.mem_ctrl.dram.power_state.pwrStateResidencyTicks::UNDEFINED    189768328                       # Cumulative time (in ticks) in various power states (Tick)
system.mem_ctrl.dram.rank0.actEnergy           878220                       # Energy for activate commands per rank (pJ) (Joule)
system.mem_ctrl.dram.rank0.preEnergy           447810                       # Energy for precharge commands per rank (pJ) (Joule)
system.mem_ctrl.dram.rank0.readEnergy         3798480                       # Energy for read commands per rank (pJ) (Joule)
system.mem_ctrl.dram.rank0.writeEnergy              0                       # Energy for write commands per rank (pJ) (Joule)
system.mem_ctrl.dram.rank0.refreshEnergy 14751360.000000                       # Energy for refresh commands per rank (pJ) (Joule)
system.mem_ctrl.dram.rank0.actBackEnergy     28345530                       # Energy for active background per rank (pJ) (Joule)
system.mem_ctrl.dram.rank0.preBackEnergy     49001280                       # Energy for precharge background per rank (pJ) (Joule)
system.mem_ctrl.dram.rank0.actPowerDownEnergy            0                       # Energy for active power-down per rank (pJ) (Joule)
system.mem_ctrl.dram.rank0.prePowerDownEnergy            0                       # Energy for precharge power-down per rank (pJ) (Joule)
system.mem_ctrl.dram.rank0.selfRefreshEnergy            0                       # Energy for self refresh per rank (pJ) (Joule)
system.mem_ctrl.dram.rank0.totalEnergy       97222680                       # Total energy per rank (pJ) (Joule)
system.mem_ctrl.dram.rank0.averagePower    512.323005                       # Core power per rank (mW) (Watt)
system.mem_ctrl.dram.rank0.totalIdleTime            0                       # Total Idle time Per DRAM Rank (Tick)
system.mem_ctrl.dram.rank0.pwrStateTime::IDLE    127149604                       # Time in different power states (Tick)
system.mem_ctrl.dram.rank0.pwrStateTime::REF      6240000                       # Time in different power states (Tick)
system.mem_ctrl.dram.rank0.pwrStateTime::SREF            0                       # Time in different power states (Tick)
system.mem_ctrl.dram.rank0.pwrStateTime::PRE_PDN            0                       # Time in different power states (Tick)
system.mem_ctrl.dram.rank0.pwrStateTime::ACT     56378724                       # Time in different power states (Tick)
system.mem_ctrl.dram.rank0.pwrStateTime::ACT_PDN            0                       # Time in different power states (Tick)
system.mem_ctrl.dram.rank1.actEnergy           357000                       # Energy for activate commands per rank (pJ) (Joule)
system.mem_ctrl.dram.rank1.preEnergy           170775                       # Energy for precharge commands per rank (pJ) (Joule)
system.mem_ctrl.dram.rank1.readEnergy         2727480                       # Energy for read commands per rank (pJ) (Joule)
system.mem_ctrl.dram.rank1.writeEnergy              0                       # Energy for write commands per rank (pJ) (Joule)
system.mem_ctrl.dram.rank1.refreshEnergy 14751360.000000                       # Energy for refresh commands per rank (pJ) (Joule)
system.mem_ctrl.dram.rank1.actBackEnergy     18350010                       # Energy for active background per rank (pJ) (Joule)
system.mem_ctrl.dram.rank1.preBackEnergy     57418560                       # Energy for precharge background per rank (pJ) (Joule)
system.mem_ctrl.dram.rank1.actPowerDownEnergy            0                       # Energy for active power-down per rank (pJ) (Joule)
system.mem_ctrl.dram.rank1.prePowerDownEnergy            0                       # Energy for precharge power-down per rank (pJ) (Joule)
system.mem_ctrl.dram.rank1.selfRefreshEnergy            0                       # Energy for self refresh per rank (pJ) (Joule)
system.mem_ctrl.dram.rank1.totalEnergy       93775185                       # Total energy per rank (pJ) (Joule)
system.mem_ctrl.dram.rank1.averagePower    494.156143                       # Core power per rank (mW) (Watt)
system.mem_ctrl.dram.rank1.totalIdleTime            0                       # Total Idle time Per DRAM Rank (Tick)
system.mem_ctrl.dram.rank1.pwrStateTime::IDLE    149098244                       # Time in different power states (Tick)
system.mem_ctrl.dram.rank1.pwrStateTime::REF      6240000                       # Time in different power states (Tick)
system.mem_ctrl.dram.rank1.pwrStateTime::SREF            0                       # Time in different power states (Tick)
system.mem_ctrl.dram.rank1.pwrStateTime::PRE_PDN            0                       # Time in different power states (Tick)
system.mem_ctrl.dram.rank1.pwrStateTime::ACT     34430084                       # Time in different power states (Tick)
system.mem_ctrl.dram.rank1.pwrStateTime::ACT_PDN            0                       # Time in different power states (Tick)
system.mem_ctrl.power_state.pwrStateResidencyTicks::UNDEFINED    189768328                       # Cumulative time (in ticks) in various power states (Tick)
system.membus.transDist::ReadResp                 654                       # Transaction distribution (Count)
system.membus.transDist::ReadExReq                259                       # Transaction distribution (Count)
system.membus.transDist::ReadExResp               259                       # Transaction distribution (Count)
system.membus.transDist::ReadSharedReq            655                       # Transaction distribution (Count)
system.membus.pktCount_system.l2cache.mem_side_port::system.mem_ctrl.port         1827                       # Packet count per connected requestor and responder (Count)
system.membus.pktCount_system.l2cache.mem_side_port::total         1827                       # Packet count per connected requestor and responder (Count)
system.membus.pktCount::total                    1827                       # Packet count per connected requestor and responder (Count)
system.membus.pktSize_system.l2cache.mem_side_port::system.mem_ctrl.port        58432                       # Cumulative packet size per connected requestor and responder (Byte)
system.membus.pktSize_system.l2cache.mem_side_port::total        58432                       # Cumulative packet size per connected requestor and responder (Byte)
system.membus.pktSize::total                    58432                       # Cumulative packet size per connected requestor and responder (Byte)
system.membus.snoops                                0                       # Total snoops (Count)
system.membus.snoopTraffic                          0                       # Total snoop traffic (Byte)
system.membus.snoopFanout::samples                914                       # Request fanout histogram (Count)
system.membus.snoopFanout::mean                     0                       # Request fanout histogram (Count)
system.membus.snoopFanout::stdev                    0                       # Request fanout histogram (Count)
system.membus.snoopFanout::underflows               0      0.00%      0.00% # Request fanout histogram (Count)
system.membus.snoopFanout::0                      914    100.00%    100.00% # Request fanout histogram (Count)
system.membus.snoopFanout::1                        0      0.00%    100.00% # Request fanout histogram (Count)
system.membus.snoopFanout::overflows                0      0.00%    100.00% # Request fanout histogram (Count)
system.membus.snoopFanout::min_value                0                       # Request fanout histogram (Count)
system.membus.snoopFanout::max_value                0                       # Request fanout histogram (Count)
system.membus.snoopFanout::total                  914                       # Request fanout histogram (Count)
system.membus.power_state.pwrStateResidencyTicks::UNDEFINED    189768328                       # Cumulative time (in ticks) in various power states (Tick)
system.membus.reqLayer2.occupancy              343664                       # Layer occupancy (ticks) (Tick)
system.membus.reqLayer2.utilization               0.0                       # Layer utilization (Ratio)
system.membus.respLayer0.occupancy            1990802                       # Layer occupancy (ticks) (Tick)
system.membus.respLayer0.utilization              0.0                       # Layer utilization (Ratio)
system.membus.snoop_filter.totRequests            914                       # Total number of requests made to the snoop filter. (Count)
system.membus.snoop_filter.hitSingleRequests            0                       # Number of requests hitting in the snoop filter with a single holder of the requested data. (Count)
system.membus.snoop_filter.hitMultiRequests            0                       # Number of requests hitting in the snoop filter with multiple (>1) holders of the requested data. (Count)
system.membus.snoop_filter.totSnoops                0                       # Total number of snoops made to the snoop filter. (Count)
system.membus.snoop_filter.hitSingleSnoops            0                       # Number of snoops hitting in the snoop filter with a single holder of the requested data. (Count)
system.membus.snoop_filter.hitMultiSnoops            0                       # Number of snoops hitting in the snoop filter with multiple (>1) holders of the requested data. (Count)
system.workload.inst.arm                            0                       # number of arm instructions executed (Count)
system.workload.inst.quiesce                        0                       # number of quiesce instructions executed (Count)

---------- End Simulation Statistics   ----------
