
---------- Begin Simulation Statistics ----------
simSeconds                                   0.000466                       # Number of seconds simulated (Second)
simTicks                                    466144000                       # Number of ticks simulated (Tick)
finalTick                                   466144000                       # Number of ticks from beginning of simulation (restored from checkpoints and never reset) (Tick)
simFreq                                  1000000000000                       # The number of ticks per simulated second ((Tick/Second))
hostSeconds                                     15.93                       # Real time elapsed on the host (Second)
hostTickRate                                 29253765                       # The number of ticks simulated per host second (ticks/s) ((Tick/Second))
hostMemory                                     632696                       # Number of bytes of host memory used (Byte)
simInsts                                       566482                       # Number of instructions simulated (Count)
simOps                                        1004118                       # Number of ops (including micro ops) simulated (Count)
hostInstRate                                    35550                       # Simulator instruction rate (inst/s) ((Count/Second))
hostOpRate                                      63015                       # Simulator op (including micro ops) rate (op/s) ((Count/Second))
system.clk_domain.clock                          1000                       # Clock period in ticks (Tick)
system.clk_domain.voltage_domain.voltage            1                       # Voltage in Volts (Volt)
system.cpu.numCycles                           466145                       # Number of cpu cycles simulated (Cycle)
system.cpu.numWorkItemsStarted                      0                       # Number of work items this cpu started (Count)
system.cpu.numWorkItemsCompleted                    0                       # Number of work items this cpu completed (Count)
system.cpu.instsAdded                         1097981                       # Number of instructions added to the IQ (excludes non-spec) (Count)
system.cpu.nonSpecInstsAdded                        9                       # Number of non-speculative instructions added to the IQ (Count)
system.cpu.instsIssued                        1070489                       # Number of instructions issued (Count)
system.cpu.squashedInstsIssued                    136                       # Number of squashed instructions issued (Count)
system.cpu.squashedInstsExamined                93866                       # Number of squashed instructions iterated over during squash; mainly for profiling (Count)
system.cpu.squashedOperandsExamined            118890                       # Number of squashed operands that are examined and possibly removed from graph (Count)
system.cpu.squashedNonSpecRemoved                   9                       # Number of squashed non-spec instructions that were removed (Count)
system.cpu.numIssuedDist::samples              443079                       # Number of insts issued each cycle (Count)
system.cpu.numIssuedDist::mean               2.416023                       # Number of insts issued each cycle (Count)
system.cpu.numIssuedDist::stdev              1.587907                       # Number of insts issued each cycle (Count)
system.cpu.numIssuedDist::underflows                0      0.00%      0.00% # Number of insts issued each cycle (Count)
system.cpu.numIssuedDist::0                     71172     16.06%     16.06% # Number of insts issued each cycle (Count)
system.cpu.numIssuedDist::1                     67603     15.26%     31.32% # Number of insts issued each cycle (Count)
system.cpu.numIssuedDist::2                     74493     16.81%     48.13% # Number of insts issued each cycle (Count)
system.cpu.numIssuedDist::3                    105406     23.79%     71.92% # Number of insts issued each cycle (Count)
system.cpu.numIssuedDist::4                     99304     22.41%     94.33% # Number of insts issued each cycle (Count)
system.cpu.numIssuedDist::5                     13542      3.06%     97.39% # Number of insts issued each cycle (Count)
system.cpu.numIssuedDist::6                      8923      2.01%     99.41% # Number of insts issued each cycle (Count)
system.cpu.numIssuedDist::7                      1870      0.42%     99.83% # Number of insts issued each cycle (Count)
system.cpu.numIssuedDist::8                       766      0.17%    100.00% # Number of insts issued each cycle (Count)
system.cpu.numIssuedDist::overflows                 0      0.00%    100.00% # Number of insts issued each cycle (Count)
system.cpu.numIssuedDist::min_value                 0                       # Number of insts issued each cycle (Count)
system.cpu.numIssuedDist::max_value                 8                       # Number of insts issued each cycle (Count)
system.cpu.numIssuedDist::total                443079                       # Number of insts issued each cycle (Count)
system.cpu.statFuBusy::No_OpClass                   0      0.00%      0.00% # attempts to use FU when none available (Count)
system.cpu.statFuBusy::IntAlu                    4187     97.85%     97.85% # attempts to use FU when none available (Count)
system.cpu.statFuBusy::IntMult                      0      0.00%     97.85% # attempts to use FU when none available (Count)
system.cpu.statFuBusy::IntDiv                       0      0.00%     97.85% # attempts to use FU when none available (Count)
system.cpu.statFuBusy::FloatAdd                     0      0.00%     97.85% # attempts to use FU when none available (Count)
system.cpu.statFuBusy::FloatCmp                     0      0.00%     97.85% # attempts to use FU when none available (Count)
system.cpu.statFuBusy::FloatCvt                     0      0.00%     97.85% # attempts to use FU when none available (Count)
system.cpu.statFuBusy::FloatMult                    0      0.00%     97.85% # attempts to use FU when none available (Count)
system.cpu.statFuBusy::FloatMultAcc                 0      0.00%     97.85% # attempts to use FU when none available (Count)
system.cpu.statFuBusy::FloatDiv                     0      0.00%     97.85% # attempts to use FU when none available (Count)
system.cpu.statFuBusy::FloatMisc                    0      0.00%     97.85% # attempts to use FU when none available (Count)
system.cpu.statFuBusy::FloatSqrt                    0      0.00%     97.85% # attempts to use FU when none available (Count)
system.cpu.statFuBusy::SimdAdd                      1      0.02%     97.87% # attempts to use FU when none available (Count)
system.cpu.statFuBusy::SimdAddAcc                   0      0.00%     97.87% # attempts to use FU when none available (Count)
system.cpu.statFuBusy::SimdAlu                     10      0.23%     98.11% # attempts to use FU when none available (Count)
system.cpu.statFuBusy::SimdCmp                      0      0.00%     98.11% # attempts to use FU when none available (Count)
system.cpu.statFuBusy::SimdCvt                      1      0.02%     98.13% # attempts to use FU when none available (Count)
system.cpu.statFuBusy::SimdMisc                     2      0.05%     98.18% # attempts to use FU when none available (Count)
system.cpu.statFuBusy::SimdMult                     0      0.00%     98.18% # attempts to use FU when none available (Count)
system.cpu.statFuBusy::SimdMultAcc                  0      0.00%     98.18% # attempts to use FU when none available (Count)
system.cpu.statFuBusy::SimdShift                    0      0.00%     98.18% # attempts to use FU when none available (Count)
system.cpu.statFuBusy::SimdShiftAcc                 0      0.00%     98.18% # attempts to use FU when none available (Count)
system.cpu.statFuBusy::SimdDiv                      0      0.00%     98.18% # attempts to use FU when none available (Count)
system.cpu.statFuBusy::SimdSqrt                     0      0.00%     98.18% # attempts to use FU when none available (Count)
system.cpu.statFuBusy::SimdFloatAdd                 0      0.00%     98.18% # attempts to use FU when none available (Count)
system.cpu.statFuBusy::SimdFloatAlu                 0      0.00%     98.18% # attempts to use FU when none available (Count)
system.cpu.statFuBusy::SimdFloatCmp                 0      0.00%     98.18% # attempts to use FU when none available (Count)
system.cpu.statFuBusy::SimdFloatCvt                 0      0.00%     98.18% # attempts to use FU when none available (Count)
system.cpu.statFuBusy::SimdFloatDiv                 0      0.00%     98.18% # attempts to use FU when none available (Count)
system.cpu.statFuBusy::SimdFloatMisc                0      0.00%     98.18% # attempts to use FU when none available (Count)
system.cpu.statFuBusy::SimdFloatMult                0      0.00%     98.18% # attempts to use FU when none available (Count)
system.cpu.statFuBusy::SimdFloatMultAcc             0      0.00%     98.18% # attempts to use FU when none available (Count)
system.cpu.statFuBusy::SimdFloatSqrt                0      0.00%     98.18% # attempts to use FU when none available (Count)
system.cpu.statFuBusy::SimdReduceAdd                0      0.00%     98.18% # attempts to use FU when none available (Count)
system.cpu.statFuBusy::SimdReduceAlu                0      0.00%     98.18% # attempts to use FU when none available (Count)
system.cpu.statFuBusy::SimdReduceCmp                0      0.00%     98.18% # attempts to use FU when none available (Count)
system.cpu.statFuBusy::SimdFloatReduceAdd            0      0.00%     98.18% # attempts to use FU when none available (Count)
system.cpu.statFuBusy::SimdFloatReduceCmp            0      0.00%     98.18% # attempts to use FU when none available (Count)
system.cpu.statFuBusy::SimdAes                      0      0.00%     98.18% # attempts to use FU when none available (Count)
system.cpu.statFuBusy::SimdAesMix                   0      0.00%     98.18% # attempts to use FU when none available (Count)
system.cpu.statFuBusy::SimdSha1Hash                 0      0.00%     98.18% # attempts to use FU when none available (Count)
system.cpu.statFuBusy::SimdSha1Hash2                0      0.00%     98.18% # attempts to use FU when none available (Count)
system.cpu.statFuBusy::SimdSha256Hash               0      0.00%     98.18% # attempts to use FU when none available (Count)
system.cpu.statFuBusy::SimdSha256Hash2              0      0.00%     98.18% # attempts to use FU when none available (Count)
system.cpu.statFuBusy::SimdShaSigma2                0      0.00%     98.18% # attempts to use FU when none available (Count)
system.cpu.statFuBusy::SimdShaSigma3                0      0.00%     98.18% # attempts to use FU when none available (Count)
system.cpu.statFuBusy::SimdPredAlu                  0      0.00%     98.18% # attempts to use FU when none available (Count)
system.cpu.statFuBusy::MemRead                     40      0.93%     99.11% # attempts to use FU when none available (Count)
system.cpu.statFuBusy::MemWrite                    19      0.44%     99.56% # attempts to use FU when none available (Count)
system.cpu.statFuBusy::FloatMemRead                 8      0.19%     99.74% # attempts to use FU when none available (Count)
system.cpu.statFuBusy::FloatMemWrite               11      0.26%    100.00% # attempts to use FU when none available (Count)
system.cpu.statFuBusy::IprAccess                    0      0.00%    100.00% # attempts to use FU when none available (Count)
system.cpu.statFuBusy::InstPrefetch                 0      0.00%    100.00% # attempts to use FU when none available (Count)
system.cpu.statIssuedInstType_0::No_OpClass          908      0.08%      0.08% # Number of instructions issued per FU type, per thread (Count)
system.cpu.statIssuedInstType_0::IntAlu       1029812     96.20%     96.28% # Number of instructions issued per FU type, per thread (Count)
system.cpu.statIssuedInstType_0::IntMult          526      0.05%     96.33% # Number of instructions issued per FU type, per thread (Count)
system.cpu.statIssuedInstType_0::IntDiv            21      0.00%     96.34% # Number of instructions issued per FU type, per thread (Count)
system.cpu.statIssuedInstType_0::FloatAdd          141      0.01%     96.35% # Number of instructions issued per FU type, per thread (Count)
system.cpu.statIssuedInstType_0::FloatCmp            0      0.00%     96.35% # Number of instructions issued per FU type, per thread (Count)
system.cpu.statIssuedInstType_0::FloatCvt            0      0.00%     96.35% # Number of instructions issued per FU type, per thread (Count)
system.cpu.statIssuedInstType_0::FloatMult            0      0.00%     96.35% # Number of instructions issued per FU type, per thread (Count)
system.cpu.statIssuedInstType_0::FloatMultAcc            0      0.00%     96.35% # Number of instructions issued per FU type, per thread (Count)
system.cpu.statIssuedInstType_0::FloatDiv            0      0.00%     96.35% # Number of instructions issued per FU type, per thread (Count)
system.cpu.statIssuedInstType_0::FloatMisc            0      0.00%     96.35% # Number of instructions issued per FU type, per thread (Count)
system.cpu.statIssuedInstType_0::FloatSqrt            0      0.00%     96.35% # Number of instructions issued per FU type, per thread (Count)
system.cpu.statIssuedInstType_0::SimdAdd         1058      0.10%     96.45% # Number of instructions issued per FU type, per thread (Count)
system.cpu.statIssuedInstType_0::SimdAddAcc            0      0.00%     96.45% # Number of instructions issued per FU type, per thread (Count)
system.cpu.statIssuedInstType_0::SimdAlu          148      0.01%     96.46% # Number of instructions issued per FU type, per thread (Count)
system.cpu.statIssuedInstType_0::SimdCmp            0      0.00%     96.46% # Number of instructions issued per FU type, per thread (Count)
system.cpu.statIssuedInstType_0::SimdCvt           46      0.00%     96.47% # Number of instructions issued per FU type, per thread (Count)
system.cpu.statIssuedInstType_0::SimdMisc          232      0.02%     96.49% # Number of instructions issued per FU type, per thread (Count)
system.cpu.statIssuedInstType_0::SimdMult            0      0.00%     96.49% # Number of instructions issued per FU type, per thread (Count)
system.cpu.statIssuedInstType_0::SimdMultAcc            0      0.00%     96.49% # Number of instructions issued per FU type, per thread (Count)
system.cpu.statIssuedInstType_0::SimdShift            0      0.00%     96.49% # Number of instructions issued per FU type, per thread (Count)
system.cpu.statIssuedInstType_0::SimdShiftAcc            0      0.00%     96.49% # Number of instructions issued per FU type, per thread (Count)
system.cpu.statIssuedInstType_0::SimdDiv            0      0.00%     96.49% # Number of instructions issued per FU type, per thread (Count)
system.cpu.statIssuedInstType_0::SimdSqrt            0      0.00%     96.49% # Number of instructions issued per FU type, per thread (Count)
system.cpu.statIssuedInstType_0::SimdFloatAdd            0      0.00%     96.49% # Number of instructions issued per FU type, per thread (Count)
system.cpu.statIssuedInstType_0::SimdFloatAlu            0      0.00%     96.49% # Number of instructions issued per FU type, per thread (Count)
system.cpu.statIssuedInstType_0::SimdFloatCmp            0      0.00%     96.49% # Number of instructions issued per FU type, per thread (Count)
system.cpu.statIssuedInstType_0::SimdFloatCvt           15      0.00%     96.49% # Number of instructions issued per FU type, per thread (Count)
system.cpu.statIssuedInstType_0::SimdFloatDiv            0      0.00%     96.49% # Number of instructions issued per FU type, per thread (Count)
system.cpu.statIssuedInstType_0::SimdFloatMisc            0      0.00%     96.49% # Number of instructions issued per FU type, per thread (Count)
system.cpu.statIssuedInstType_0::SimdFloatMult           16      0.00%     96.49% # Number of instructions issued per FU type, per thread (Count)
system.cpu.statIssuedInstType_0::SimdFloatMultAcc            0      0.00%     96.49% # Number of instructions issued per FU type, per thread (Count)
system.cpu.statIssuedInstType_0::SimdFloatSqrt            0      0.00%     96.49% # Number of instructions issued per FU type, per thread (Count)
system.cpu.statIssuedInstType_0::SimdReduceAdd            0      0.00%     96.49% # Number of instructions issued per FU type, per thread (Count)
system.cpu.statIssuedInstType_0::SimdReduceAlu            0      0.00%     96.49% # Number of instructions issued per FU type, per thread (Count)
system.cpu.statIssuedInstType_0::SimdReduceCmp            0      0.00%     96.49% # Number of instructions issued per FU type, per thread (Count)
system.cpu.statIssuedInstType_0::SimdFloatReduceAdd            0      0.00%     96.49% # Number of instructions issued per FU type, per thread (Count)
system.cpu.statIssuedInstType_0::SimdFloatReduceCmp            0      0.00%     96.49% # Number of instructions issued per FU type, per thread (Count)
system.cpu.statIssuedInstType_0::SimdAes            0      0.00%     96.49% # Number of instructions issued per FU type, per thread (Count)
system.cpu.statIssuedInstType_0::SimdAesMix            0      0.00%     96.49% # Number of instructions issued per FU type, per thread (Count)
system.cpu.statIssuedInstType_0::SimdSha1Hash            0      0.00%     96.49% # Number of instructions issued per FU type, per thread (Count)
system.cpu.statIssuedInstType_0::SimdSha1Hash2            0      0.00%     96.49% # Number of instructions issued per FU type, per thread (Count)
system.cpu.statIssuedInstType_0::SimdSha256Hash            0      0.00%     96.49% # Number of instructions issued per FU type, per thread (Count)
system.cpu.statIssuedInstType_0::SimdSha256Hash2            0      0.00%     96.49% # Number of instructions issued per FU type, per thread (Count)
system.cpu.statIssuedInstType_0::SimdShaSigma2            0      0.00%     96.49% # Number of instructions issued per FU type, per thread (Count)
system.cpu.statIssuedInstType_0::SimdShaSigma3            0      0.00%     96.49% # Number of instructions issued per FU type, per thread (Count)
system.cpu.statIssuedInstType_0::SimdPredAlu            0      0.00%     96.49% # Number of instructions issued per FU type, per thread (Count)
system.cpu.statIssuedInstType_0::MemRead        17378      1.62%     98.11% # Number of instructions issued per FU type, per thread (Count)
system.cpu.statIssuedInstType_0::MemWrite        18462      1.72%     99.84% # Number of instructions issued per FU type, per thread (Count)
system.cpu.statIssuedInstType_0::FloatMemRead          119      0.01%     99.85% # Number of instructions issued per FU type, per thread (Count)
system.cpu.statIssuedInstType_0::FloatMemWrite         1607      0.15%    100.00% # Number of instructions issued per FU type, per thread (Count)
system.cpu.statIssuedInstType_0::IprAccess            0      0.00%    100.00% # Number of instructions issued per FU type, per thread (Count)
system.cpu.statIssuedInstType_0::InstPrefetch            0      0.00%    100.00% # Number of instructions issued per FU type, per thread (Count)
system.cpu.statIssuedInstType_0::total        1070489                       # Number of instructions issued per FU type, per thread (Count)
system.cpu.issueRate                         2.296472                       # Inst issue rate ((Count/Cycle))
system.cpu.fuBusy                                4279                       # FU busy when requested (Count)
system.cpu.fuBusyRate                        0.003997                       # FU busy rate (busy events/executed inst) ((Count/Count))
system.cpu.intInstQueueReads                  2579523                       # Number of integer instruction queue reads (Count)
system.cpu.intInstQueueWrites                 1187008                       # Number of integer instruction queue writes (Count)
system.cpu.intInstQueueWakeupAccesses         1052778                       # Number of integer instruction queue wakeup accesses (Count)
system.cpu.fpInstQueueReads                      8949                       # Number of floating instruction queue reads (Count)
system.cpu.fpInstQueueWrites                     4859                       # Number of floating instruction queue writes (Count)
system.cpu.fpInstQueueWakeupAccesses             4374                       # Number of floating instruction queue wakeup accesses (Count)
system.cpu.vecInstQueueReads                        0                       # Number of vector instruction queue reads (Count)
system.cpu.vecInstQueueWrites                       0                       # Number of vector instruction queue writes (Count)
system.cpu.vecInstQueueWakeupAccesses               0                       # Number of vector instruction queue wakeup accesses (Count)
system.cpu.intAluAccesses                     1069371                       # Number of integer alu accesses (Count)
system.cpu.fpAluAccesses                         4489                       # Number of floating point alu accesses (Count)
system.cpu.vecAluAccesses                           0                       # Number of vector alu accesses (Count)
system.cpu.idleCycles                               0                       # Number of cycles IEW is idle (Cycle)
system.cpu.squashCycles                          5396                       # Number of cycles IEW is squashing (Cycle)
system.cpu.blockCycles                          10119                       # Number of cycles IEW is blocking (Cycle)
system.cpu.unblockCycles                         5298                       # Number of cycles IEW is unblocking (Cycle)
system.cpu.dispatchedInsts                    1097990                       # Number of instructions dispatched to IQ (Count)
system.cpu.dispSquashedInsts                      239                       # Number of squashed instructions skipped by dispatch (Count)
system.cpu.dispLoadInsts                        18151                       # Number of dispatched load instructions (Count)
system.cpu.dispStoreInsts                       20651                       # Number of dispatched store instructions (Count)
system.cpu.dispNonSpecInsts                         5                       # Number of dispatched non-speculative instructions (Count)
system.cpu.iqFullEvents                            19                       # Number of times the IQ has become full, causing a stall (Count)
system.cpu.lsqFullEvents                         5225                       # Number of times the LSQ has become full, causing a stall (Count)
system.cpu.memOrderViolationEvents                 12                       # Number of memory order violations (Count)
system.cpu.predictedTakenIncorrect               3072                       # Number of branches that were predicted taken incorrectly (Count)
system.cpu.predictedNotTakenIncorrect            3171                       # Number of branches that were predicted not taken incorrectly (Count)
system.cpu.branchMispredicts                     6243                       # Number of branch mispredicts detected at execute (Count)
system.cpu.numInsts                           1058335                       # Number of executed instructions (Count)
system.cpu.loadInsts                            17045                       # Number of load instructions executed (Count)
system.cpu.numSquashedInsts                     12154                       # Number of squashed instructions skipped in execute (Count)
system.cpu.numSwp                                   0                       # Number of swp insts executed (Count)
system.cpu.numNop                                   0                       # Number of nop insts executed (Count)
system.cpu.numRefs                              37040                       # Number of memory reference insts executed (Count)
system.cpu.numBranches                         149790                       # Number of branches executed (Count)
system.cpu.numStoreInsts                        19995                       # Number of stores executed (Count)
system.cpu.numRate                           2.270399                       # Inst execution rate ((Count/Cycle))
system.cpu.loadsRA                                 34                       # Number of load instructions executed in runahead mode (Count)
system.cpu.instsToCommit                      1057840                       # Cumulative count of insts sent to commit (Count)
system.cpu.writebackCount                     1057152                       # Cumulative count of insts written-back (Count)
system.cpu.producerInst                        865565                       # Number of instructions producing a value (Count)
system.cpu.consumerInst                       1431293                       # Number of instructions consuming a value (Count)
system.cpu.wbRate                            2.267861                       # Insts written-back per cycle ((Count/Cycle))
system.cpu.wbFanout                          0.604743                       # Average fanout of values written-back ((Count/Count))
system.cpu.timesIdled                             340                       # Number of times that the entire CPU went into an idle state and unscheduled itself (Count)
system.cpu.idleCycles                           23066                       # Total number of cycles that the CPU has spent unscheduled due to idling (Cycle)
system.cpu.committedInsts                      566482                       # Number of Instructions Simulated (Count)
system.cpu.committedOps                       1004118                       # Number of Ops (including micro ops) Simulated (Count)
system.cpu.cpi                               0.822877                       # CPI: Cycles Per Instruction ((Cycle/Count))
system.cpu.totalCpi                          0.822877                       # CPI: Total CPI of All Threads ((Cycle/Count))
system.cpu.ipc                               1.215248                       # IPC: Instructions Per Cycle ((Count/Cycle))
system.cpu.totalIpc                          1.215248                       # IPC: Total IPC of All Threads ((Count/Cycle))
system.cpu.intRegfileReads                    1389937                       # Number of integer regfile reads (Count)
system.cpu.intRegfileWrites                    884607                       # Number of integer regfile writes (Count)
system.cpu.fpRegfileReads                        7719                       # Number of floating regfile reads (Count)
system.cpu.fpRegfileWrites                       2757                       # Number of floating regfile writes (Count)
system.cpu.ccRegfileReads                      919565                       # number of cc regfile reads (Count)
system.cpu.ccRegfileWrites                     477134                       # number of cc regfile writes (Count)
system.cpu.miscRegfileReads                    343363                       # number of misc regfile reads (Count)
system.cpu.robFull                                179                       # Number of times that the ROB becomes full (Count)
system.cpu.robFullRA                              171                       # Number of times that the ROB becomes full in runahead mode. (Count)
system.cpu.enterRA                                  4                       # Number of times the CPU enters runahead (Count)
system.cpu.fetchedRA                              231                       # Number of instructions fetched in runahead mode. (Count)
system.cpu.totalCyclesRA                          171                       # total number of cycles the CPU spends in runahead (Cycle)
system.cpu.cyclesAvgRA                         42.750                       # average number of cycles the CPU spends in runahead ((Cycle/Count))
system.cpu.pctRobEmptyRA                        0.000                       # percentage of cycles spent in runahead, when ROB would be empty (Ratio)
system.cpu.insertedAvgRA                        0.000                       # average number of instructions inserted into ROB in runahead (Ratio)
system.cpu.maxAtRobHd                             447                       # maximum number of cycles one instruction spends at the head of ROB in runahead (Count)
system.cpu.totalDecodedRA                         220                       # total number of instructions decoded in runahead (Count)
system.cpu.decodedAvgRA                        55.000                       # average number of instructions decoded in runahead (Ratio)
system.cpu.freeIQWhenEnter                        142                       # Total number of free entries in Instruction Queue when entering PRE (Count)
system.cpu.freeIQAvg                           35.500                       # Average number of free entries in Instruction Queue when entering PRE (Ratio)
system.cpu.freeSQWhenEnter                         66                       # Total number of free entries in Store Queue when entering PRE (Count)
system.cpu.freeSQAvg                           16.500                       # Average number of free entries in Store Queue when entering PRE (Ratio)
system.cpu.freeLQWhenEnter                         74                       # Total number of free entries in Load Queue when entering PRE (Count)
system.cpu.freeLQAvg                           18.500                       # Average number of free entries in Load Queue when entering PRE (Ratio)
system.cpu.freeRegsWhenEnter                     1285                       # Total number of free integer and floating point registers when entering PRE (Count)
system.cpu.freeRegsAvg                        321.250                       # Average number of free integer and floating point registers when entering PRE (Ratio)
system.cpu.totalExecutedPRE                   1070489                       # Number of instructions executed while the CPU is in PRE mode (Count)
system.cpu.executedPREAvg                  267622.250                       # Average number of instructions executed while the CPU is in PRE mode (Ratio)
system.cpu.MemDepUnit__0.insertedLoads          18151                       # Number of loads inserted to the mem dependence unit. (Count)
system.cpu.MemDepUnit__0.insertedStores         20651                       # Number of stores inserted to the mem dependence unit. (Count)
system.cpu.MemDepUnit__0.conflictingLoads         2072                       # Number of conflicting loads. (Count)
system.cpu.MemDepUnit__0.conflictingStores         4092                       # Number of conflicting stores. (Count)
system.cpu.MemDepUnit__1.insertedLoads              0                       # Number of loads inserted to the mem dependence unit. (Count)
system.cpu.MemDepUnit__1.insertedStores             0                       # Number of stores inserted to the mem dependence unit. (Count)
system.cpu.MemDepUnit__1.conflictingLoads            0                       # Number of conflicting loads. (Count)
system.cpu.MemDepUnit__1.conflictingStores            0                       # Number of conflicting stores. (Count)
system.cpu.MemDepUnit__2.insertedLoads              0                       # Number of loads inserted to the mem dependence unit. (Count)
system.cpu.MemDepUnit__2.insertedStores             0                       # Number of stores inserted to the mem dependence unit. (Count)
system.cpu.MemDepUnit__2.conflictingLoads            0                       # Number of conflicting loads. (Count)
system.cpu.MemDepUnit__2.conflictingStores            0                       # Number of conflicting stores. (Count)
system.cpu.MemDepUnit__3.insertedLoads              0                       # Number of loads inserted to the mem dependence unit. (Count)
system.cpu.MemDepUnit__3.insertedStores             0                       # Number of stores inserted to the mem dependence unit. (Count)
system.cpu.MemDepUnit__3.conflictingLoads            0                       # Number of conflicting loads. (Count)
system.cpu.MemDepUnit__3.conflictingStores            0                       # Number of conflicting stores. (Count)
system.cpu.branchPred.lookups                  170363                       # Number of BP lookups (Count)
system.cpu.branchPred.condPredicted            164488                       # Number of conditional branches predicted (Count)
system.cpu.branchPred.condIncorrect              5504                       # Number of conditional branches incorrect (Count)
system.cpu.branchPred.BTBLookups               105646                       # Number of BTB lookups (Count)
system.cpu.branchPred.BTBHits                  104785                       # Number of BTB hits (Count)
system.cpu.branchPred.BTBHitRatio            0.991850                       # BTB Hit Ratio (Ratio)
system.cpu.branchPred.RASUsed                     499                       # Number of times the RAS was used to get a target. (Count)
system.cpu.branchPred.RASIncorrect                  0                       # Number of incorrect RAS predictions. (Count)
system.cpu.branchPred.indirectLookups             403                       # Number of indirect predictor lookups. (Count)
system.cpu.branchPred.indirectHits                 22                       # Number of indirect target hits. (Count)
system.cpu.branchPred.indirectMisses              381                       # Number of indirect misses. (Count)
system.cpu.branchPred.indirectMispredicted           97                       # Number of mispredicted indirect branches. (Count)
system.cpu.commit.commitSquashedInsts           93438                       # The number of squashed insts skipped by commit (Count)
system.cpu.commit.branchMispredicts              5366                       # The number of times a branch was mispredicted (Count)
system.cpu.commit.numCommittedDist::samples       428153                       # Number of insts commited each cycle (Count)
system.cpu.commit.numCommittedDist::mean     2.345232                       # Number of insts commited each cycle (Count)
system.cpu.commit.numCommittedDist::stdev     2.184295                       # Number of insts commited each cycle (Count)
system.cpu.commit.numCommittedDist::underflows            0      0.00%      0.00% # Number of insts commited each cycle (Count)
system.cpu.commit.numCommittedDist::0           79109     18.48%     18.48% # Number of insts commited each cycle (Count)
system.cpu.commit.numCommittedDist::1          170599     39.85%     58.32% # Number of insts commited each cycle (Count)
system.cpu.commit.numCommittedDist::2            7555      1.76%     60.09% # Number of insts commited each cycle (Count)
system.cpu.commit.numCommittedDist::3           21478      5.02%     65.10% # Number of insts commited each cycle (Count)
system.cpu.commit.numCommittedDist::4           48068     11.23%     76.33% # Number of insts commited each cycle (Count)
system.cpu.commit.numCommittedDist::5           78927     18.43%     94.76% # Number of insts commited each cycle (Count)
system.cpu.commit.numCommittedDist::6            5306      1.24%     96.00% # Number of insts commited each cycle (Count)
system.cpu.commit.numCommittedDist::7            1656      0.39%     96.39% # Number of insts commited each cycle (Count)
system.cpu.commit.numCommittedDist::8           15455      3.61%    100.00% # Number of insts commited each cycle (Count)
system.cpu.commit.numCommittedDist::overflows            0      0.00%    100.00% # Number of insts commited each cycle (Count)
system.cpu.commit.numCommittedDist::min_value            0                       # Number of insts commited each cycle (Count)
system.cpu.commit.numCommittedDist::max_value            8                       # Number of insts commited each cycle (Count)
system.cpu.commit.numCommittedDist::total       428153                       # Number of insts commited each cycle (Count)
system.cpu.commit.instsCommitted               566482                       # Number of instructions committed (Count)
system.cpu.commit.opsCommitted                1004118                       # Number of ops (including micro ops) committed (Count)
system.cpu.commit.memRefs                       33940                       # Number of memory references committed (Count)
system.cpu.commit.loads                         14639                       # Number of loads committed (Count)
system.cpu.commit.amos                              0                       # Number of atomic instructions committed (Count)
system.cpu.commit.membars                           0                       # Number of memory barriers committed (Count)
system.cpu.commit.branches                     144594                       # Number of branches committed (Count)
system.cpu.commit.vectorInstructions                0                       # Number of committed Vector instructions. (Count)
system.cpu.commit.floating                       4149                       # Number of committed floating point instructions. (Count)
system.cpu.commit.integer                     1000987                       # Number of committed integer instructions. (Count)
system.cpu.commit.functionCalls                   286                       # Number of function calls committed. (Count)
system.cpu.commit.committedInstType_0::No_OpClass          500      0.05%      0.05% # Class of committed instruction (Count)
system.cpu.commit.committedInstType_0::IntAlu       967594     96.36%     96.41% # Class of committed instruction (Count)
system.cpu.commit.committedInstType_0::IntMult          522      0.05%     96.46% # Class of committed instruction (Count)
system.cpu.commit.committedInstType_0::IntDiv           21      0.00%     96.47% # Class of committed instruction (Count)
system.cpu.commit.committedInstType_0::FloatAdd          137      0.01%     96.48% # Class of committed instruction (Count)
system.cpu.commit.committedInstType_0::FloatCmp            0      0.00%     96.48% # Class of committed instruction (Count)
system.cpu.commit.committedInstType_0::FloatCvt            0      0.00%     96.48% # Class of committed instruction (Count)
system.cpu.commit.committedInstType_0::FloatMult            0      0.00%     96.48% # Class of committed instruction (Count)
system.cpu.commit.committedInstType_0::FloatMultAcc            0      0.00%     96.48% # Class of committed instruction (Count)
system.cpu.commit.committedInstType_0::FloatDiv            0      0.00%     96.48% # Class of committed instruction (Count)
system.cpu.commit.committedInstType_0::FloatMisc            0      0.00%     96.48% # Class of committed instruction (Count)
system.cpu.commit.committedInstType_0::FloatSqrt            0      0.00%     96.48% # Class of committed instruction (Count)
system.cpu.commit.committedInstType_0::SimdAdd         1024      0.10%     96.58% # Class of committed instruction (Count)
system.cpu.commit.committedInstType_0::SimdAddAcc            0      0.00%     96.58% # Class of committed instruction (Count)
system.cpu.commit.committedInstType_0::SimdAlu           94      0.01%     96.59% # Class of committed instruction (Count)
system.cpu.commit.committedInstType_0::SimdCmp            0      0.00%     96.59% # Class of committed instruction (Count)
system.cpu.commit.committedInstType_0::SimdCvt           46      0.00%     96.60% # Class of committed instruction (Count)
system.cpu.commit.committedInstType_0::SimdMisc          216      0.02%     96.62% # Class of committed instruction (Count)
system.cpu.commit.committedInstType_0::SimdMult            0      0.00%     96.62% # Class of committed instruction (Count)
system.cpu.commit.committedInstType_0::SimdMultAcc            0      0.00%     96.62% # Class of committed instruction (Count)
system.cpu.commit.committedInstType_0::SimdShift            0      0.00%     96.62% # Class of committed instruction (Count)
system.cpu.commit.committedInstType_0::SimdShiftAcc            0      0.00%     96.62% # Class of committed instruction (Count)
system.cpu.commit.committedInstType_0::SimdDiv            0      0.00%     96.62% # Class of committed instruction (Count)
system.cpu.commit.committedInstType_0::SimdSqrt            0      0.00%     96.62% # Class of committed instruction (Count)
system.cpu.commit.committedInstType_0::SimdFloatAdd            0      0.00%     96.62% # Class of committed instruction (Count)
system.cpu.commit.committedInstType_0::SimdFloatAlu            0      0.00%     96.62% # Class of committed instruction (Count)
system.cpu.commit.committedInstType_0::SimdFloatCmp            0      0.00%     96.62% # Class of committed instruction (Count)
system.cpu.commit.committedInstType_0::SimdFloatCvt           12      0.00%     96.62% # Class of committed instruction (Count)
system.cpu.commit.committedInstType_0::SimdFloatDiv            0      0.00%     96.62% # Class of committed instruction (Count)
system.cpu.commit.committedInstType_0::SimdFloatMisc            0      0.00%     96.62% # Class of committed instruction (Count)
system.cpu.commit.committedInstType_0::SimdFloatMult           12      0.00%     96.62% # Class of committed instruction (Count)
system.cpu.commit.committedInstType_0::SimdFloatMultAcc            0      0.00%     96.62% # Class of committed instruction (Count)
system.cpu.commit.committedInstType_0::SimdFloatSqrt            0      0.00%     96.62% # Class of committed instruction (Count)
system.cpu.commit.committedInstType_0::SimdReduceAdd            0      0.00%     96.62% # Class of committed instruction (Count)
system.cpu.commit.committedInstType_0::SimdReduceAlu            0      0.00%     96.62% # Class of committed instruction (Count)
system.cpu.commit.committedInstType_0::SimdReduceCmp            0      0.00%     96.62% # Class of committed instruction (Count)
system.cpu.commit.committedInstType_0::SimdFloatReduceAdd            0      0.00%     96.62% # Class of committed instruction (Count)
system.cpu.commit.committedInstType_0::SimdFloatReduceCmp            0      0.00%     96.62% # Class of committed instruction (Count)
system.cpu.commit.committedInstType_0::SimdAes            0      0.00%     96.62% # Class of committed instruction (Count)
system.cpu.commit.committedInstType_0::SimdAesMix            0      0.00%     96.62% # Class of committed instruction (Count)
system.cpu.commit.committedInstType_0::SimdSha1Hash            0      0.00%     96.62% # Class of committed instruction (Count)
system.cpu.commit.committedInstType_0::SimdSha1Hash2            0      0.00%     96.62% # Class of committed instruction (Count)
system.cpu.commit.committedInstType_0::SimdSha256Hash            0      0.00%     96.62% # Class of committed instruction (Count)
system.cpu.commit.committedInstType_0::SimdSha256Hash2            0      0.00%     96.62% # Class of committed instruction (Count)
system.cpu.commit.committedInstType_0::SimdShaSigma2            0      0.00%     96.62% # Class of committed instruction (Count)
system.cpu.commit.committedInstType_0::SimdShaSigma3            0      0.00%     96.62% # Class of committed instruction (Count)
system.cpu.commit.committedInstType_0::SimdPredAlu            0      0.00%     96.62% # Class of committed instruction (Count)
system.cpu.commit.committedInstType_0::MemRead        14556      1.45%     98.07% # Class of committed instruction (Count)
system.cpu.commit.committedInstType_0::MemWrite        17811      1.77%     99.84% # Class of committed instruction (Count)
system.cpu.commit.committedInstType_0::FloatMemRead           83      0.01%     99.85% # Class of committed instruction (Count)
system.cpu.commit.committedInstType_0::FloatMemWrite         1490      0.15%    100.00% # Class of committed instruction (Count)
system.cpu.commit.committedInstType_0::IprAccess            0      0.00%    100.00% # Class of committed instruction (Count)
system.cpu.commit.committedInstType_0::InstPrefetch            0      0.00%    100.00% # Class of committed instruction (Count)
system.cpu.commit.committedInstType_0::total      1004118                       # Class of committed instruction (Count)
system.cpu.commit.commitEligibleSamples         15455                       # number cycles where commit BW limit reached (Cycle)
system.cpu.dcache.demandHits::cpu.data          34823                       # number of demand (read+write) hits (Count)
system.cpu.dcache.demandHits::total             34823                       # number of demand (read+write) hits (Count)
system.cpu.dcache.overallHits::cpu.data         34823                       # number of overall hits (Count)
system.cpu.dcache.overallHits::total            34823                       # number of overall hits (Count)
system.cpu.dcache.demandMisses::cpu.data          535                       # number of demand (read+write) misses (Count)
system.cpu.dcache.demandMisses::total             535                       # number of demand (read+write) misses (Count)
system.cpu.dcache.overallMisses::cpu.data          535                       # number of overall misses (Count)
system.cpu.dcache.overallMisses::total            535                       # number of overall misses (Count)
system.cpu.dcache.demandMissLatency::cpu.data     54002999                       # number of demand (read+write) miss ticks (Tick)
system.cpu.dcache.demandMissLatency::total     54002999                       # number of demand (read+write) miss ticks (Tick)
system.cpu.dcache.overallMissLatency::cpu.data     54002999                       # number of overall miss ticks (Tick)
system.cpu.dcache.overallMissLatency::total     54002999                       # number of overall miss ticks (Tick)
system.cpu.dcache.demandAccesses::cpu.data        35358                       # number of demand (read+write) accesses (Count)
system.cpu.dcache.demandAccesses::total         35358                       # number of demand (read+write) accesses (Count)
system.cpu.dcache.overallAccesses::cpu.data        35358                       # number of overall (read+write) accesses (Count)
system.cpu.dcache.overallAccesses::total        35358                       # number of overall (read+write) accesses (Count)
system.cpu.dcache.demandMissRate::cpu.data     0.015131                       # miss rate for demand accesses (Ratio)
system.cpu.dcache.demandMissRate::total      0.015131                       # miss rate for demand accesses (Ratio)
system.cpu.dcache.overallMissRate::cpu.data     0.015131                       # miss rate for overall accesses (Ratio)
system.cpu.dcache.overallMissRate::total     0.015131                       # miss rate for overall accesses (Ratio)
system.cpu.dcache.demandAvgMissLatency::cpu.data 100940.185047                       # average overall miss latency ((Cycle/Count))
system.cpu.dcache.demandAvgMissLatency::total 100940.185047                       # average overall miss latency ((Cycle/Count))
system.cpu.dcache.overallAvgMissLatency::cpu.data 100940.185047                       # average overall miss latency ((Cycle/Count))
system.cpu.dcache.overallAvgMissLatency::total 100940.185047                       # average overall miss latency ((Cycle/Count))
system.cpu.dcache.blockedCycles::no_mshrs          490                       # number of cycles access was blocked (Cycle)
system.cpu.dcache.blockedCycles::no_targets            0                       # number of cycles access was blocked (Cycle)
system.cpu.dcache.blockedCauses::no_mshrs           15                       # number of times access was blocked (Count)
system.cpu.dcache.blockedCauses::no_targets            0                       # number of times access was blocked (Count)
system.cpu.dcache.avgBlocked::no_mshrs      32.666667                       # average number of cycles each access was blocked ((Cycle/Count))
system.cpu.dcache.avgBlocked::no_targets          nan                       # average number of cycles each access was blocked ((Cycle/Count))
system.cpu.dcache.writebacks::writebacks           44                       # number of writebacks (Count)
system.cpu.dcache.writebacks::total                44                       # number of writebacks (Count)
system.cpu.dcache.demandMshrHits::cpu.data          143                       # number of demand (read+write) MSHR hits (Count)
system.cpu.dcache.demandMshrHits::total           143                       # number of demand (read+write) MSHR hits (Count)
system.cpu.dcache.overallMshrHits::cpu.data          143                       # number of overall MSHR hits (Count)
system.cpu.dcache.overallMshrHits::total          143                       # number of overall MSHR hits (Count)
system.cpu.dcache.demandMshrMisses::cpu.data          392                       # number of demand (read+write) MSHR misses (Count)
system.cpu.dcache.demandMshrMisses::total          392                       # number of demand (read+write) MSHR misses (Count)
system.cpu.dcache.overallMshrMisses::cpu.data          392                       # number of overall MSHR misses (Count)
system.cpu.dcache.overallMshrMisses::total          392                       # number of overall MSHR misses (Count)
system.cpu.dcache.demandMshrMissLatency::cpu.data     40338999                       # number of demand (read+write) MSHR miss ticks (Tick)
system.cpu.dcache.demandMshrMissLatency::total     40338999                       # number of demand (read+write) MSHR miss ticks (Tick)
system.cpu.dcache.overallMshrMissLatency::cpu.data     40338999                       # number of overall MSHR miss ticks (Tick)
system.cpu.dcache.overallMshrMissLatency::total     40338999                       # number of overall MSHR miss ticks (Tick)
system.cpu.dcache.demandMshrMissRate::cpu.data     0.011087                       # mshr miss ratio for demand accesses (Ratio)
system.cpu.dcache.demandMshrMissRate::total     0.011087                       # mshr miss ratio for demand accesses (Ratio)
system.cpu.dcache.overallMshrMissRate::cpu.data     0.011087                       # mshr miss ratio for overall accesses (Ratio)
system.cpu.dcache.overallMshrMissRate::total     0.011087                       # mshr miss ratio for overall accesses (Ratio)
system.cpu.dcache.demandAvgMshrMissLatency::cpu.data 102905.609694                       # average overall mshr miss latency ((Cycle/Count))
system.cpu.dcache.demandAvgMshrMissLatency::total 102905.609694                       # average overall mshr miss latency ((Cycle/Count))
system.cpu.dcache.overallAvgMshrMissLatency::cpu.data 102905.609694                       # average overall mshr miss latency ((Cycle/Count))
system.cpu.dcache.overallAvgMshrMissLatency::total 102905.609694                       # average overall mshr miss latency ((Cycle/Count))
system.cpu.dcache.replacements                     54                       # number of replacements (Count)
system.cpu.dcache.ReadReq.hits::cpu.data        15782                       # number of ReadReq hits (Count)
system.cpu.dcache.ReadReq.hits::total           15782                       # number of ReadReq hits (Count)
system.cpu.dcache.ReadReq.misses::cpu.data          275                       # number of ReadReq misses (Count)
system.cpu.dcache.ReadReq.misses::total           275                       # number of ReadReq misses (Count)
system.cpu.dcache.ReadReq.missLatency::cpu.data     27570000                       # number of ReadReq miss ticks (Tick)
system.cpu.dcache.ReadReq.missLatency::total     27570000                       # number of ReadReq miss ticks (Tick)
system.cpu.dcache.ReadReq.accesses::cpu.data        16057                       # number of ReadReq accesses(hits+misses) (Count)
system.cpu.dcache.ReadReq.accesses::total        16057                       # number of ReadReq accesses(hits+misses) (Count)
system.cpu.dcache.ReadReq.missRate::cpu.data     0.017126                       # miss rate for ReadReq accesses (Ratio)
system.cpu.dcache.ReadReq.missRate::total     0.017126                       # miss rate for ReadReq accesses (Ratio)
system.cpu.dcache.ReadReq.avgMissLatency::cpu.data 100254.545455                       # average ReadReq miss latency ((Tick/Count))
system.cpu.dcache.ReadReq.avgMissLatency::total 100254.545455                       # average ReadReq miss latency ((Tick/Count))
system.cpu.dcache.ReadReq.mshrHits::cpu.data          141                       # number of ReadReq MSHR hits (Count)
system.cpu.dcache.ReadReq.mshrHits::total          141                       # number of ReadReq MSHR hits (Count)
system.cpu.dcache.ReadReq.mshrMisses::cpu.data          134                       # number of ReadReq MSHR misses (Count)
system.cpu.dcache.ReadReq.mshrMisses::total          134                       # number of ReadReq MSHR misses (Count)
system.cpu.dcache.ReadReq.mshrMissLatency::cpu.data     14568000                       # number of ReadReq MSHR miss ticks (Tick)
system.cpu.dcache.ReadReq.mshrMissLatency::total     14568000                       # number of ReadReq MSHR miss ticks (Tick)
system.cpu.dcache.ReadReq.mshrMissRate::cpu.data     0.008345                       # mshr miss rate for ReadReq accesses (Ratio)
system.cpu.dcache.ReadReq.mshrMissRate::total     0.008345                       # mshr miss rate for ReadReq accesses (Ratio)
system.cpu.dcache.ReadReq.avgMshrMissLatency::cpu.data 108716.417910                       # average ReadReq mshr miss latency ((Tick/Count))
system.cpu.dcache.ReadReq.avgMshrMissLatency::total 108716.417910                       # average ReadReq mshr miss latency ((Tick/Count))
system.cpu.dcache.WriteReq.hits::cpu.data        19041                       # number of WriteReq hits (Count)
system.cpu.dcache.WriteReq.hits::total          19041                       # number of WriteReq hits (Count)
system.cpu.dcache.WriteReq.misses::cpu.data          260                       # number of WriteReq misses (Count)
system.cpu.dcache.WriteReq.misses::total          260                       # number of WriteReq misses (Count)
system.cpu.dcache.WriteReq.missLatency::cpu.data     26432999                       # number of WriteReq miss ticks (Tick)
system.cpu.dcache.WriteReq.missLatency::total     26432999                       # number of WriteReq miss ticks (Tick)
system.cpu.dcache.WriteReq.accesses::cpu.data        19301                       # number of WriteReq accesses(hits+misses) (Count)
system.cpu.dcache.WriteReq.accesses::total        19301                       # number of WriteReq accesses(hits+misses) (Count)
system.cpu.dcache.WriteReq.missRate::cpu.data     0.013471                       # miss rate for WriteReq accesses (Ratio)
system.cpu.dcache.WriteReq.missRate::total     0.013471                       # miss rate for WriteReq accesses (Ratio)
system.cpu.dcache.WriteReq.avgMissLatency::cpu.data 101665.380769                       # average WriteReq miss latency ((Tick/Count))
system.cpu.dcache.WriteReq.avgMissLatency::total 101665.380769                       # average WriteReq miss latency ((Tick/Count))
system.cpu.dcache.WriteReq.mshrHits::cpu.data            2                       # number of WriteReq MSHR hits (Count)
system.cpu.dcache.WriteReq.mshrHits::total            2                       # number of WriteReq MSHR hits (Count)
system.cpu.dcache.WriteReq.mshrMisses::cpu.data          258                       # number of WriteReq MSHR misses (Count)
system.cpu.dcache.WriteReq.mshrMisses::total          258                       # number of WriteReq MSHR misses (Count)
system.cpu.dcache.WriteReq.mshrMissLatency::cpu.data     25770999                       # number of WriteReq MSHR miss ticks (Tick)
system.cpu.dcache.WriteReq.mshrMissLatency::total     25770999                       # number of WriteReq MSHR miss ticks (Tick)
system.cpu.dcache.WriteReq.mshrMissRate::cpu.data     0.013367                       # mshr miss rate for WriteReq accesses (Ratio)
system.cpu.dcache.WriteReq.mshrMissRate::total     0.013367                       # mshr miss rate for WriteReq accesses (Ratio)
system.cpu.dcache.WriteReq.avgMshrMissLatency::cpu.data 99887.593023                       # average WriteReq mshr miss latency ((Tick/Count))
system.cpu.dcache.WriteReq.avgMshrMissLatency::total 99887.593023                       # average WriteReq mshr miss latency ((Tick/Count))
system.cpu.dcache.power_state.pwrStateResidencyTicks::UNDEFINED    466144000                       # Cumulative time (in ticks) in various power states (Tick)
system.cpu.dcache.tags.tagsInUse           301.760207                       # Average ticks per tags in use ((Tick/Count))
system.cpu.dcache.tags.totalRefs                35215                       # Total number of references to valid blocks. (Count)
system.cpu.dcache.tags.sampledRefs                392                       # Sample count of references to valid blocks. (Count)
system.cpu.dcache.tags.avgRefs              89.834184                       # Average number of references to valid blocks. ((Count/Count))
system.cpu.dcache.tags.warmupTick              222000                       # The tick when the warmup percentage was hit. (Tick)
system.cpu.dcache.tags.occupancies::cpu.data   301.760207                       # Average occupied blocks per tick, per requestor ((Count/Tick))
system.cpu.dcache.tags.avgOccs::cpu.data     0.589375                       # Average percentage of cache occupancy ((Ratio/Tick))
system.cpu.dcache.tags.avgOccs::total        0.589375                       # Average percentage of cache occupancy ((Ratio/Tick))
system.cpu.dcache.tags.occupanciesTaskId::1024          338                       # Occupied blocks per task id (Count)
system.cpu.dcache.tags.ageTaskId_1024::0           21                       # Occupied blocks per task id, per block age (Count)
system.cpu.dcache.tags.ageTaskId_1024::2          317                       # Occupied blocks per task id, per block age (Count)
system.cpu.dcache.tags.ratioOccsTaskId::1024     0.660156                       # Ratio of occupied blocks and all blocks, per task id (Ratio)
system.cpu.dcache.tags.tagAccesses              71108                       # Number of tag accesses (Count)
system.cpu.dcache.tags.dataAccesses             71108                       # Number of data accesses (Count)
system.cpu.dcache.tags.power_state.pwrStateResidencyTicks::UNDEFINED    466144000                       # Cumulative time (in ticks) in various power states (Tick)
system.cpu.decode.idleCycles                   128051                       # Number of cycles decode is idle (Cycle)
system.cpu.decode.blockedCycles                 79534                       # Number of cycles decode is blocked (Cycle)
system.cpu.decode.runCycles                    205582                       # Number of cycles decode is running (Cycle)
system.cpu.decode.unblockCycles                 24516                       # Number of cycles decode is unblocking (Cycle)
system.cpu.decode.squashCycles                   5396                       # Number of cycles decode is squashing (Cycle)
system.cpu.decode.branchResolved               103013                       # Number of times decode resolved a branch (Count)
system.cpu.decode.branchMispred                   249                       # Number of times decode detected a branch misprediction (Count)
system.cpu.decode.decodedInsts                1146753                       # Number of instructions handled by decode (Count)
system.cpu.decode.squashedInsts                  1155                       # Number of squashed instructions handled by decode (Count)
system.cpu.fetch.icacheStallCycles             134895                       # Number of cycles fetch is stalled on an Icache miss (Cycle)
system.cpu.fetch.insts                         658148                       # Number of instructions fetch has processed (Count)
system.cpu.fetch.branches                      170363                       # Number of branches that fetch encountered (Count)
system.cpu.fetch.predictedBranches             105306                       # Number of branches that fetch has predicted taken (Count)
system.cpu.fetch.cycles                        301753                       # Number of cycles fetch has run and was not squashing or blocked (Cycle)
system.cpu.fetch.squashCycles                   11266                       # Number of cycles fetch has spent squashing (Cycle)
system.cpu.fetch.miscStallCycles                  114                       # Number of cycles fetch has spent waiting on interrupts, or bad addresses, or out of MSHRs (Cycle)
system.cpu.fetch.pendingTrapStallCycles           654                       # Number of stall cycles due to pending traps (Cycle)
system.cpu.fetch.pendingQuiesceStallCycles            2                       # Number of stall cycles due to pending quiesce instructions (Cycle)
system.cpu.fetch.icacheWaitRetryStallCycles           28                       # Number of stall cycles due to full MSHR (Cycle)
system.cpu.fetch.cacheLines                    118841                       # Number of cache lines fetched (Count)
system.cpu.fetch.icacheSquashes                  1926                       # Number of outstanding Icache misses that were squashed (Count)
system.cpu.fetch.nisnDist::samples             443079                       # Number of instructions fetched each cycle (Total) (Count)
system.cpu.fetch.nisnDist::mean              2.644070                       # Number of instructions fetched each cycle (Total) (Count)
system.cpu.fetch.nisnDist::stdev             2.999438                       # Number of instructions fetched each cycle (Total) (Count)
system.cpu.fetch.nisnDist::underflows               0      0.00%      0.00% # Number of instructions fetched each cycle (Total) (Count)
system.cpu.fetch.nisnDist::0                   197908     44.67%     44.67% # Number of instructions fetched each cycle (Total) (Count)
system.cpu.fetch.nisnDist::1                     4729      1.07%     45.73% # Number of instructions fetched each cycle (Total) (Count)
system.cpu.fetch.nisnDist::2                    47421     10.70%     56.44% # Number of instructions fetched each cycle (Total) (Count)
system.cpu.fetch.nisnDist::3                    48551     10.96%     67.39% # Number of instructions fetched each cycle (Total) (Count)
system.cpu.fetch.nisnDist::4                    49872     11.26%     78.65% # Number of instructions fetched each cycle (Total) (Count)
system.cpu.fetch.nisnDist::5                     7369      1.66%     80.31% # Number of instructions fetched each cycle (Total) (Count)
system.cpu.fetch.nisnDist::6                     2736      0.62%     80.93% # Number of instructions fetched each cycle (Total) (Count)
system.cpu.fetch.nisnDist::7                     2385      0.54%     81.47% # Number of instructions fetched each cycle (Total) (Count)
system.cpu.fetch.nisnDist::8                    82108     18.53%    100.00% # Number of instructions fetched each cycle (Total) (Count)
system.cpu.fetch.nisnDist::overflows                0      0.00%    100.00% # Number of instructions fetched each cycle (Total) (Count)
system.cpu.fetch.nisnDist::min_value                0                       # Number of instructions fetched each cycle (Total) (Count)
system.cpu.fetch.nisnDist::max_value                8                       # Number of instructions fetched each cycle (Total) (Count)
system.cpu.fetch.nisnDist::total               443079                       # Number of instructions fetched each cycle (Total) (Count)
system.cpu.fetch.branchRate                  0.365472                       # Number of branch fetches per cycle (Ratio)
system.cpu.fetch.rate                        1.411895                       # Number of inst fetches per cycle ((Count/Cycle))
system.cpu.icache.demandHits::cpu.inst         118147                       # number of demand (read+write) hits (Count)
system.cpu.icache.demandHits::total            118147                       # number of demand (read+write) hits (Count)
system.cpu.icache.overallHits::cpu.inst        118147                       # number of overall hits (Count)
system.cpu.icache.overallHits::total           118147                       # number of overall hits (Count)
system.cpu.icache.demandMisses::cpu.inst          694                       # number of demand (read+write) misses (Count)
system.cpu.icache.demandMisses::total             694                       # number of demand (read+write) misses (Count)
system.cpu.icache.overallMisses::cpu.inst          694                       # number of overall misses (Count)
system.cpu.icache.overallMisses::total            694                       # number of overall misses (Count)
system.cpu.icache.demandMissLatency::cpu.inst     65709000                       # number of demand (read+write) miss ticks (Tick)
system.cpu.icache.demandMissLatency::total     65709000                       # number of demand (read+write) miss ticks (Tick)
system.cpu.icache.overallMissLatency::cpu.inst     65709000                       # number of overall miss ticks (Tick)
system.cpu.icache.overallMissLatency::total     65709000                       # number of overall miss ticks (Tick)
system.cpu.icache.demandAccesses::cpu.inst       118841                       # number of demand (read+write) accesses (Count)
system.cpu.icache.demandAccesses::total        118841                       # number of demand (read+write) accesses (Count)
system.cpu.icache.overallAccesses::cpu.inst       118841                       # number of overall (read+write) accesses (Count)
system.cpu.icache.overallAccesses::total       118841                       # number of overall (read+write) accesses (Count)
system.cpu.icache.demandMissRate::cpu.inst     0.005840                       # miss rate for demand accesses (Ratio)
system.cpu.icache.demandMissRate::total      0.005840                       # miss rate for demand accesses (Ratio)
system.cpu.icache.overallMissRate::cpu.inst     0.005840                       # miss rate for overall accesses (Ratio)
system.cpu.icache.overallMissRate::total     0.005840                       # miss rate for overall accesses (Ratio)
system.cpu.icache.demandAvgMissLatency::cpu.inst 94681.556196                       # average overall miss latency ((Cycle/Count))
system.cpu.icache.demandAvgMissLatency::total 94681.556196                       # average overall miss latency ((Cycle/Count))
system.cpu.icache.overallAvgMissLatency::cpu.inst 94681.556196                       # average overall miss latency ((Cycle/Count))
system.cpu.icache.overallAvgMissLatency::total 94681.556196                       # average overall miss latency ((Cycle/Count))
system.cpu.icache.blockedCycles::no_mshrs          289                       # number of cycles access was blocked (Cycle)
system.cpu.icache.blockedCycles::no_targets            0                       # number of cycles access was blocked (Cycle)
system.cpu.icache.blockedCauses::no_mshrs            7                       # number of times access was blocked (Count)
system.cpu.icache.blockedCauses::no_targets            0                       # number of times access was blocked (Count)
system.cpu.icache.avgBlocked::no_mshrs      41.285714                       # average number of cycles each access was blocked ((Cycle/Count))
system.cpu.icache.avgBlocked::no_targets          nan                       # average number of cycles each access was blocked ((Cycle/Count))
system.cpu.icache.demandMshrHits::cpu.inst          140                       # number of demand (read+write) MSHR hits (Count)
system.cpu.icache.demandMshrHits::total           140                       # number of demand (read+write) MSHR hits (Count)
system.cpu.icache.overallMshrHits::cpu.inst          140                       # number of overall MSHR hits (Count)
system.cpu.icache.overallMshrHits::total          140                       # number of overall MSHR hits (Count)
system.cpu.icache.demandMshrMisses::cpu.inst          554                       # number of demand (read+write) MSHR misses (Count)
system.cpu.icache.demandMshrMisses::total          554                       # number of demand (read+write) MSHR misses (Count)
system.cpu.icache.overallMshrMisses::cpu.inst          554                       # number of overall MSHR misses (Count)
system.cpu.icache.overallMshrMisses::total          554                       # number of overall MSHR misses (Count)
system.cpu.icache.demandMshrMissLatency::cpu.inst     53592000                       # number of demand (read+write) MSHR miss ticks (Tick)
system.cpu.icache.demandMshrMissLatency::total     53592000                       # number of demand (read+write) MSHR miss ticks (Tick)
system.cpu.icache.overallMshrMissLatency::cpu.inst     53592000                       # number of overall MSHR miss ticks (Tick)
system.cpu.icache.overallMshrMissLatency::total     53592000                       # number of overall MSHR miss ticks (Tick)
system.cpu.icache.demandMshrMissRate::cpu.inst     0.004662                       # mshr miss ratio for demand accesses (Ratio)
system.cpu.icache.demandMshrMissRate::total     0.004662                       # mshr miss ratio for demand accesses (Ratio)
system.cpu.icache.overallMshrMissRate::cpu.inst     0.004662                       # mshr miss ratio for overall accesses (Ratio)
system.cpu.icache.overallMshrMissRate::total     0.004662                       # mshr miss ratio for overall accesses (Ratio)
system.cpu.icache.demandAvgMshrMissLatency::cpu.inst 96736.462094                       # average overall mshr miss latency ((Cycle/Count))
system.cpu.icache.demandAvgMshrMissLatency::total 96736.462094                       # average overall mshr miss latency ((Cycle/Count))
system.cpu.icache.overallAvgMshrMissLatency::cpu.inst 96736.462094                       # average overall mshr miss latency ((Cycle/Count))
system.cpu.icache.overallAvgMshrMissLatency::total 96736.462094                       # average overall mshr miss latency ((Cycle/Count))
system.cpu.icache.replacements                    299                       # number of replacements (Count)
system.cpu.icache.ReadReq.hits::cpu.inst       118147                       # number of ReadReq hits (Count)
system.cpu.icache.ReadReq.hits::total          118147                       # number of ReadReq hits (Count)
system.cpu.icache.ReadReq.misses::cpu.inst          694                       # number of ReadReq misses (Count)
system.cpu.icache.ReadReq.misses::total           694                       # number of ReadReq misses (Count)
system.cpu.icache.ReadReq.missLatency::cpu.inst     65709000                       # number of ReadReq miss ticks (Tick)
system.cpu.icache.ReadReq.missLatency::total     65709000                       # number of ReadReq miss ticks (Tick)
system.cpu.icache.ReadReq.accesses::cpu.inst       118841                       # number of ReadReq accesses(hits+misses) (Count)
system.cpu.icache.ReadReq.accesses::total       118841                       # number of ReadReq accesses(hits+misses) (Count)
system.cpu.icache.ReadReq.missRate::cpu.inst     0.005840                       # miss rate for ReadReq accesses (Ratio)
system.cpu.icache.ReadReq.missRate::total     0.005840                       # miss rate for ReadReq accesses (Ratio)
system.cpu.icache.ReadReq.avgMissLatency::cpu.inst 94681.556196                       # average ReadReq miss latency ((Tick/Count))
system.cpu.icache.ReadReq.avgMissLatency::total 94681.556196                       # average ReadReq miss latency ((Tick/Count))
system.cpu.icache.ReadReq.mshrHits::cpu.inst          140                       # number of ReadReq MSHR hits (Count)
system.cpu.icache.ReadReq.mshrHits::total          140                       # number of ReadReq MSHR hits (Count)
system.cpu.icache.ReadReq.mshrMisses::cpu.inst          554                       # number of ReadReq MSHR misses (Count)
system.cpu.icache.ReadReq.mshrMisses::total          554                       # number of ReadReq MSHR misses (Count)
system.cpu.icache.ReadReq.mshrMissLatency::cpu.inst     53592000                       # number of ReadReq MSHR miss ticks (Tick)
system.cpu.icache.ReadReq.mshrMissLatency::total     53592000                       # number of ReadReq MSHR miss ticks (Tick)
system.cpu.icache.ReadReq.mshrMissRate::cpu.inst     0.004662                       # mshr miss rate for ReadReq accesses (Ratio)
system.cpu.icache.ReadReq.mshrMissRate::total     0.004662                       # mshr miss rate for ReadReq accesses (Ratio)
system.cpu.icache.ReadReq.avgMshrMissLatency::cpu.inst 96736.462094                       # average ReadReq mshr miss latency ((Tick/Count))
system.cpu.icache.ReadReq.avgMshrMissLatency::total 96736.462094                       # average ReadReq mshr miss latency ((Tick/Count))
system.cpu.icache.power_state.pwrStateResidencyTicks::UNDEFINED    466144000                       # Cumulative time (in ticks) in various power states (Tick)
system.cpu.icache.tags.tagsInUse           241.531602                       # Average ticks per tags in use ((Tick/Count))
system.cpu.icache.tags.totalRefs               118700                       # Total number of references to valid blocks. (Count)
system.cpu.icache.tags.sampledRefs                553                       # Sample count of references to valid blocks. (Count)
system.cpu.icache.tags.avgRefs             214.647378                       # Average number of references to valid blocks. ((Count/Count))
system.cpu.icache.tags.warmupTick              107000                       # The tick when the warmup percentage was hit. (Tick)
system.cpu.icache.tags.occupancies::cpu.inst   241.531602                       # Average occupied blocks per tick, per requestor ((Count/Tick))
system.cpu.icache.tags.avgOccs::cpu.inst     0.943483                       # Average percentage of cache occupancy ((Ratio/Tick))
system.cpu.icache.tags.avgOccs::total        0.943483                       # Average percentage of cache occupancy ((Ratio/Tick))
system.cpu.icache.tags.occupanciesTaskId::1024          254                       # Occupied blocks per task id (Count)
system.cpu.icache.tags.ageTaskId_1024::0           64                       # Occupied blocks per task id, per block age (Count)
system.cpu.icache.tags.ageTaskId_1024::1            2                       # Occupied blocks per task id, per block age (Count)
system.cpu.icache.tags.ageTaskId_1024::2          188                       # Occupied blocks per task id, per block age (Count)
system.cpu.icache.tags.ratioOccsTaskId::1024     0.992188                       # Ratio of occupied blocks and all blocks, per task id (Ratio)
system.cpu.icache.tags.tagAccesses             238235                       # Number of tag accesses (Count)
system.cpu.icache.tags.dataAccesses            238235                       # Number of data accesses (Count)
system.cpu.icache.tags.power_state.pwrStateResidencyTicks::UNDEFINED    466144000                       # Cumulative time (in ticks) in various power states (Tick)
system.cpu.interrupts.clk_domain.clock          16000                       # Clock period in ticks (Tick)
system.cpu.lsq0.forwLoads                         897                       # Number of loads that had data forwarded from stores (Count)
system.cpu.lsq0.squashedLoads                    3512                       # Number of loads squashed (Count)
system.cpu.lsq0.ignoredResponses                    1                       # Number of memory responses ignored because the instruction is squashed (Count)
system.cpu.lsq0.memOrderViolation                  12                       # Number of memory ordering violations (Count)
system.cpu.lsq0.squashedStores                   1350                       # Number of stores squashed (Count)
system.cpu.lsq0.rescheduledLoads                    0                       # Number of loads that were rescheduled (Count)
system.cpu.lsq0.blockedByCache                     12                       # Number of times an access to memory failed due to the cache being blocked (Count)
system.cpu.lsq0.loadToUse::samples              14639                       # Distribution of cycle latency between the first time a load is issued and its completion (Unspecified)
system.cpu.lsq0.loadToUse::mean              4.080060                       # Distribution of cycle latency between the first time a load is issued and its completion (Unspecified)
system.cpu.lsq0.loadToUse::stdev            11.098745                       # Distribution of cycle latency between the first time a load is issued and its completion (Unspecified)
system.cpu.lsq0.loadToUse::0-9                  14487     98.96%     98.96% # Distribution of cycle latency between the first time a load is issued and its completion (Unspecified)
system.cpu.lsq0.loadToUse::10-19                    4      0.03%     98.99% # Distribution of cycle latency between the first time a load is issued and its completion (Unspecified)
system.cpu.lsq0.loadToUse::20-29                    7      0.05%     99.04% # Distribution of cycle latency between the first time a load is issued and its completion (Unspecified)
system.cpu.lsq0.loadToUse::40-49                    1      0.01%     99.04% # Distribution of cycle latency between the first time a load is issued and its completion (Unspecified)
system.cpu.lsq0.loadToUse::50-59                    1      0.01%     99.05% # Distribution of cycle latency between the first time a load is issued and its completion (Unspecified)
system.cpu.lsq0.loadToUse::70-79                    3      0.02%     99.07% # Distribution of cycle latency between the first time a load is issued and its completion (Unspecified)
system.cpu.lsq0.loadToUse::80-89                    8      0.05%     99.13% # Distribution of cycle latency between the first time a load is issued and its completion (Unspecified)
system.cpu.lsq0.loadToUse::90-99                   40      0.27%     99.40% # Distribution of cycle latency between the first time a load is issued and its completion (Unspecified)
system.cpu.lsq0.loadToUse::100-109                 32      0.22%     99.62% # Distribution of cycle latency between the first time a load is issued and its completion (Unspecified)
system.cpu.lsq0.loadToUse::110-119                 20      0.14%     99.75% # Distribution of cycle latency between the first time a load is issued and its completion (Unspecified)
system.cpu.lsq0.loadToUse::120-129                 24      0.16%     99.92% # Distribution of cycle latency between the first time a load is issued and its completion (Unspecified)
system.cpu.lsq0.loadToUse::130-139                  7      0.05%     99.97% # Distribution of cycle latency between the first time a load is issued and its completion (Unspecified)
system.cpu.lsq0.loadToUse::170-179                  1      0.01%     99.97% # Distribution of cycle latency between the first time a load is issued and its completion (Unspecified)
system.cpu.lsq0.loadToUse::180-189                  1      0.01%     99.98% # Distribution of cycle latency between the first time a load is issued and its completion (Unspecified)
system.cpu.lsq0.loadToUse::overflows                3      0.02%    100.00% # Distribution of cycle latency between the first time a load is issued and its completion (Unspecified)
system.cpu.lsq0.loadToUse::min_value                2                       # Distribution of cycle latency between the first time a load is issued and its completion (Unspecified)
[...]
system.mem_ctrl.requestorReadAvgLat::cpu.inst     27196.63                       # Per-requestor read average memory access latency ((Tick/Count))
system.mem_ctrl.requestorReadAvgLat::cpu.data     29544.57                       # Per-requestor read average memory access latency ((Tick/Count))
system.mem_ctrl.dram.bytesRead::cpu.inst        33280                       # Number of bytes read from this memory (Byte)
system.mem_ctrl.dram.bytesRead::cpu.data        24768                       # Number of bytes read from this memory (Byte)
system.mem_ctrl.dram.bytesRead::total           58048                       # Number of bytes read from this memory (Byte)
system.mem_ctrl.dram.bytesInstRead::cpu.inst        33280                       # Number of instructions bytes read from this memory (Byte)
system.mem_ctrl.dram.bytesInstRead::total        33280                       # Number of instructions bytes read from this memory (Byte)
system.mem_ctrl.dram.numReads::cpu.inst           520                       # Number of read requests responded to by this memory (Count)
system.mem_ctrl.dram.numReads::cpu.data           387                       # Number of read requests responded to by this memory (Count)
system.mem_ctrl.dram.numReads::total              907                       # Number of read requests responded to by this memory (Count)
system.mem_ctrl.dram.bwRead::cpu.inst        71394247                       # Total read bandwidth from this memory ((Byte/Second))
system.mem_ctrl.dram.bwRead::cpu.data        53133796                       # Total read bandwidth from this memory ((Byte/Second))
system.mem_ctrl.dram.bwRead::total          124528043                       # Total read bandwidth from this memory ((Byte/Second))
system.mem_ctrl.dram.bwInstRead::cpu.inst     71394247                       # Instruction read bandwidth from this memory ((Byte/Second))
system.mem_ctrl.dram.bwInstRead::total       71394247                       # Instruction read bandwidth from this memory ((Byte/Second))
system.mem_ctrl.dram.bwTotal::cpu.inst       71394247                       # Total bandwidth to/from this memory ((Byte/Second))
system.mem_ctrl.dram.bwTotal::cpu.data       53133796                       # Total bandwidth to/from this memory ((Byte/Second))
system.mem_ctrl.dram.bwTotal::total         124528043                       # Total bandwidth to/from this memory ((Byte/Second))
system.mem_ctrl.dram.readBursts                   907                       # Number of DRAM read bursts (Count)
system.mem_ctrl.dram.writeBursts                    0                       # Number of DRAM write bursts (Count)
system.mem_ctrl.dram.perBankRdBursts::0            16                       # Per bank write bursts (Count)
system.mem_ctrl.dram.perBankRdBursts::1            81                       # Per bank write bursts (Count)
system.mem_ctrl.dram.perBankRdBursts::2            39                       # Per bank write bursts (Count)
system.mem_ctrl.dram.perBankRdBursts::3           146                       # Per bank write bursts (Count)
system.mem_ctrl.dram.perBankRdBursts::4           101                       # Per bank write bursts (Count)
system.mem_ctrl.dram.perBankRdBursts::5            52                       # Per bank write bursts (Count)
system.mem_ctrl.dram.perBankRdBursts::6            17                       # Per bank write bursts (Count)
system.mem_ctrl.dram.perBankRdBursts::7            74                       # Per bank write bursts (Count)
system.mem_ctrl.dram.perBankRdBursts::8           115                       # Per bank write bursts (Count)
system.mem_ctrl.dram.perBankRdBursts::9            82                       # Per bank write bursts (Count)
system.mem_ctrl.dram.perBankRdBursts::10           25                       # Per bank write bursts (Count)
system.mem_ctrl.dram.perBankRdBursts::11           43                       # Per bank write bursts (Count)
system.mem_ctrl.dram.perBankRdBursts::12            9                       # Per bank write bursts (Count)
system.mem_ctrl.dram.perBankRdBursts::13           19                       # Per bank write bursts (Count)
system.mem_ctrl.dram.perBankRdBursts::14           39                       # Per bank write bursts (Count)
system.mem_ctrl.dram.perBankRdBursts::15           49                       # Per bank write bursts (Count)
system.mem_ctrl.dram.perBankWrBursts::0             0                       # Per bank write bursts (Count)
system.mem_ctrl.dram.perBankWrBursts::1             0                       # Per bank write bursts (Count)
system.mem_ctrl.dram.perBankWrBursts::2             0                       # Per bank write bursts (Count)
system.mem_ctrl.dram.perBankWrBursts::3             0                       # Per bank write bursts (Count)
system.mem_ctrl.dram.perBankWrBursts::4             0                       # Per bank write bursts (Count)
system.mem_ctrl.dram.perBankWrBursts::5             0                       # Per bank write bursts (Count)
system.mem_ctrl.dram.perBankWrBursts::6             0                       # Per bank write bursts (Count)
system.mem_ctrl.dram.perBankWrBursts::7             0                       # Per bank write bursts (Count)
system.mem_ctrl.dram.perBankWrBursts::8             0                       # Per bank write bursts (Count)
system.mem_ctrl.dram.perBankWrBursts::9             0                       # Per bank write bursts (Count)
system.mem_ctrl.dram.perBankWrBursts::10            0                       # Per bank write bursts (Count)
system.mem_ctrl.dram.perBankWrBursts::11            0                       # Per bank write bursts (Count)
system.mem_ctrl.dram.perBankWrBursts::12            0                       # Per bank write bursts (Count)
system.mem_ctrl.dram.perBankWrBursts::13            0                       # Per bank write bursts (Count)
system.mem_ctrl.dram.perBankWrBursts::14            0                       # Per bank write bursts (Count)
system.mem_ctrl.dram.perBankWrBursts::15            0                       # Per bank write bursts (Count)
system.mem_ctrl.dram.totQLat                  8569750                       # Total ticks spent queuing (Tick)
system.mem_ctrl.dram.totBusLat                4535000                       # Total ticks spent in databus transfers (Tick)
system.mem_ctrl.dram.totMemAccLat            25576000                       # Total ticks spent from burst creation until serviced by the DRAM (Tick)
system.mem_ctrl.dram.avgQLat                  9448.46                       # Average queueing delay per DRAM burst ((Tick/Count))
system.mem_ctrl.dram.avgBusLat                5000.00                       # Average bus latency per DRAM burst ((Tick/Count))
system.mem_ctrl.dram.avgMemAccLat            28198.46                       # Average memory access latency per DRAM burst ((Tick/Count))
system.mem_ctrl.dram.readRowHits                  726                       # Number of row buffer hits during reads (Count)
system.mem_ctrl.dram.writeRowHits                   0                       # Number of row buffer hits during writes (Count)
system.mem_ctrl.dram.readRowHitRate             80.04                       # Row buffer hit rate for reads (Ratio)
system.mem_ctrl.dram.writeRowHitRate              nan                       # Row buffer hit rate for writes (Ratio)
system.mem_ctrl.dram.bytesPerActivate::samples          171                       # Bytes accessed per row activation (Byte)
system.mem_ctrl.dram.bytesPerActivate::mean   323.368421                       # Bytes accessed per row activation (Byte)
system.mem_ctrl.dram.bytesPerActivate::gmean   193.194818                       # Bytes accessed per row activation (Byte)
system.mem_ctrl.dram.bytesPerActivate::stdev   333.296510                       # Bytes accessed per row activation (Byte)
system.mem_ctrl.dram.bytesPerActivate::0-127           57     33.33%     33.33% # Bytes accessed per row activation (Byte)
system.mem_ctrl.dram.bytesPerActivate::128-255           42     24.56%     57.89% # Bytes accessed per row activation (Byte)
system.mem_ctrl.dram.bytesPerActivate::256-383           22     12.87%     70.76% # Bytes accessed per row activation (Byte)
system.mem_ctrl.dram.bytesPerActivate::384-511            9      5.26%     76.02% # Bytes accessed per row activation (Byte)
system.mem_ctrl.dram.bytesPerActivate::512-639            4      2.34%     78.36% # Bytes accessed per row activation (Byte)
system.mem_ctrl.dram.bytesPerActivate::640-767            8      4.68%     83.04% # Bytes accessed per row activation (Byte)
system.mem_ctrl.dram.bytesPerActivate::768-895            5      2.92%     85.96% # Bytes accessed per row activation (Byte)
system.mem_ctrl.dram.bytesPerActivate::896-1023            5      2.92%     88.89% # Bytes accessed per row activation (Byte)
system.mem_ctrl.dram.bytesPerActivate::1024-1151           19     11.11%    100.00% # Bytes accessed per row activation (Byte)
system.mem_ctrl.dram.bytesPerActivate::total          171                       # Bytes accessed per row activation (Byte)
system.mem_ctrl.dram.bytesRead                  58048                       # Total number of bytes read from DRAM (Byte)
system.mem_ctrl.dram.bytesWritten                   0                       # Total number of bytes written to DRAM (Byte)
system.mem_ctrl.dram.avgRdBW               124.528043                       # Average DRAM read bandwidth in MiBytes/s ((Byte/Second))
system.mem_ctrl.dram.avgWrBW                        0                       # Average DRAM write bandwidth in MiBytes/s ((Byte/Second))
system.mem_ctrl.dram.peakBW                  12800.00                       # Theoretical peak bandwidth in MiByte/s ((Byte/Second))
system.mem_ctrl.dram.busUtil                     0.97                       # Data bus utilization in percentage (Ratio)
system.mem_ctrl.dram.busUtilRead                 0.97                       # Data bus utilization in percentage for reads (Ratio)
system.mem_ctrl.dram.busUtilWrite                0.00                       # Data bus utilization in percentage for writes (Ratio)
system.mem_ctrl.dram.pageHitRate                80.04                       # Row buffer hit rate, read and write combined (Ratio)
system.mem_ctrl.dram.power_state.pwrStateResidencyTicks::UNDEFINED    466144000                       # Cumulative time (in ticks) in various power states (Tick)
system.mem_ctrl.dram.rank0.actEnergy           899640                       # Energy for activate commands per rank (pJ) (Joule)
system.mem_ctrl.dram.rank0.preEnergy           459195                       # Energy for precharge commands per rank (pJ) (Joule)
system.mem_ctrl.dram.rank0.readEnergy         3755640                       # Energy for read commands per rank (pJ) (Joule)
system.mem_ctrl.dram.rank0.writeEnergy              0                       # Energy for write commands per rank (pJ) (Joule)
system.mem_ctrl.dram.rank0.refreshEnergy 36263760.000000                       # Energy for refresh commands per rank (pJ) (Joule)
system.mem_ctrl.dram.rank0.actBackEnergy     46559880                       # Energy for active background per rank (pJ) (Joule)
system.mem_ctrl.dram.rank0.preBackEnergy    139791360                       # Energy for precharge background per rank (pJ) (Joule)
system.mem_ctrl.dram.rank0.actPowerDownEnergy            0                       # Energy for active power-down per rank (pJ) (Joule)
system.mem_ctrl.dram.rank0.prePowerDownEnergy            0                       # Energy for precharge power-down per rank (pJ) (Joule)
system.mem_ctrl.dram.rank0.selfRefreshEnergy            0                       # Energy for self refresh per rank (pJ) (Joule)
system.mem_ctrl.dram.rank0.totalEnergy      227729475                       # Total energy per rank (pJ) (Joule)
system.mem_ctrl.dram.rank0.averagePower    488.538896                       # Core power per rank (mW) (Watt)
system.mem_ctrl.dram.rank0.totalIdleTime            0                       # Total Idle time Per DRAM Rank (Tick)
system.mem_ctrl.dram.rank0.pwrStateTime::IDLE    363017750                       # Time in different power states (Tick)
system.mem_ctrl.dram.rank0.pwrStateTime::REF     15340000                       # Time in different power states (Tick)
system.mem_ctrl.dram.rank0.pwrStateTime::SREF            0                       # Time in different power states (Tick)
system.mem_ctrl.dram.rank0.pwrStateTime::PRE_PDN            0                       # Time in different power states (Tick)
system.mem_ctrl.dram.rank0.pwrStateTime::ACT     87786250                       # Time in different power states (Tick)
system.mem_ctrl.dram.rank0.pwrStateTime::ACT_PDN            0                       # Time in different power states (Tick)
system.mem_ctrl.dram.rank1.actEnergy           392700                       # Energy for activate commands per rank (pJ) (Joule)
system.mem_ctrl.dram.rank1.preEnergy           189750                       # Energy for precharge commands per rank (pJ) (Joule)
system.mem_ctrl.dram.rank1.readEnergy         2720340                       # Energy for read commands per rank (pJ) (Joule)
system.mem_ctrl.dram.rank1.writeEnergy              0                       # Energy for write commands per rank (pJ) (Joule)
system.mem_ctrl.dram.rank1.refreshEnergy 36263760.000000                       # Energy for refresh commands per rank (pJ) (Joule)
system.mem_ctrl.dram.rank1.actBackEnergy     31388190                       # Energy for active background per rank (pJ) (Joule)
system.mem_ctrl.dram.rank1.preBackEnergy    152567520                       # Energy for precharge background per rank (pJ) (Joule)
system.mem_ctrl.dram.rank1.actPowerDownEnergy            0                       # Energy for active power-down per rank (pJ) (Joule)
system.mem_ctrl.dram.rank1.prePowerDownEnergy            0                       # Energy for precharge power-down per rank (pJ) (Joule)
system.mem_ctrl.dram.rank1.selfRefreshEnergy            0                       # Energy for self refresh per rank (pJ) (Joule)
system.mem_ctrl.dram.rank1.totalEnergy      223522260                       # Total energy per rank (pJ) (Joule)
system.mem_ctrl.dram.rank1.averagePower    479.513326                       # Core power per rank (mW) (Watt)
system.mem_ctrl.dram.rank1.totalIdleTime            0                       # Total Idle time Per DRAM Rank (Tick)
system.mem_ctrl.dram.rank1.pwrStateTime::IDLE    396349000                       # Time in different power states (Tick)
system.mem_ctrl.dram.rank1.pwrStateTime::REF     15340000                       # Time in different power states (Tick)
system.mem_ctrl.dram.rank1.pwrStateTime::SREF            0                       # Time in different power states (Tick)
system.mem_ctrl.dram.rank1.pwrStateTime::PRE_PDN            0                       # Time in different power states (Tick)
system.mem_ctrl.dram.rank1.pwrStateTime::ACT     54455000                       # Time in different power states (Tick)
system.mem_ctrl.dram.rank1.pwrStateTime::ACT_PDN            0                       # Time in different power states (Tick)
system.mem_ctrl.power_state.pwrStateResidencyTicks::UNDEFINED    466144000                       # Cumulative time (in ticks) in various power states (Tick)
system.membus.transDist::ReadResp                 649                       # Transaction distribution (Count)
system.membus.transDist::ReadExReq                258                       # Transaction distribution (Count)
system.membus.transDist::ReadExResp               258                       # Transaction distribution (Count)
system.membus.transDist::ReadSharedReq            649                       # Transaction distribution (Count)
system.membus.pktCount_system.l2cache.mem_side_port::system.mem_ctrl.port         1814                       # Packet count per connected requestor and responder (Count)
system.membus.pktCount_system.l2cache.mem_side_port::total         1814                       # Packet count per connected requestor and responder (Count)
system.membus.pktCount::total                    1814                       # Packet count per connected requestor and responder (Count)
system.membus.pktSize_system.l2cache.mem_side_port::system.mem_ctrl.port        58048                       # Cumulative packet size per connected requestor and responder (Byte)
system.membus.pktSize_system.l2cache.mem_side_port::total        58048                       # Cumulative packet size per connected requestor and responder (Byte)
system.membus.pktSize::total                    58048                       # Cumulative packet size per connected requestor and responder (Byte)
system.membus.snoops                                0                       # Total snoops (Count)
system.membus.snoopTraffic                          0                       # Total snoop traffic (Byte)
system.membus.snoopFanout::samples                907                       # Request fanout histogram (Count)
system.membus.snoopFanout::mean                     0                       # Request fanout histogram (Count)
system.membus.snoopFanout::stdev                    0                       # Request fanout histogram (Count)
system.membus.snoopFanout::underflows               0      0.00%      0.00% # Request fanout histogram (Count)
system.membus.snoopFanout::0                      907    100.00%    100.00% # Request fanout histogram (Count)
system.membus.snoopFanout::1                        0      0.00%    100.00% # Request fanout histogram (Count)
system.membus.snoopFanout::overflows                0      0.00%    100.00% # Request fanout histogram (Count)
system.membus.snoopFanout::min_value                0                       # Request fanout histogram (Count)
system.membus.snoopFanout::max_value                0                       # Request fanout histogram (Count)
system.membus.snoopFanout::total                  907                       # Request fanout histogram (Count)
system.membus.power_state.pwrStateResidencyTicks::UNDEFINED    466144000                       # Cumulative time (in ticks) in various power states (Tick)
system.membus.reqLayer2.occupancy              907000                       # Layer occupancy (ticks) (Tick)
system.membus.reqLayer2.utilization               0.0                       # Layer utilization (Ratio)
system.membus.respLayer0.occupancy            4805250                       # Layer occupancy (ticks) (Tick)
system.membus.respLayer0.utilization              0.0                       # Layer utilization (Ratio)
system.membus.snoop_filter.totRequests            907                       # Total number of requests made to the snoop filter. (Count)
system.membus.snoop_filter.hitSingleRequests            0                       # Number of requests hitting in the snoop filter with a single holder of the requested data. (Count)
system.membus.snoop_filter.hitMultiRequests            0                       # Number of requests hitting in the snoop filter with multiple (>1) holders of the requested data. (Count)
system.membus.snoop_filter.totSnoops                0                       # Total number of snoops made to the snoop filter. (Count)
system.membus.snoop_filter.hitSingleSnoops            0                       # Number of snoops hitting in the snoop filter with a single holder of the requested data. (Count)
system.membus.snoop_filter.hitMultiSnoops            0                       # Number of snoops hitting in the snoop filter with multiple (>1) holders of the requested data. (Count)
system.workload.inst.arm                            0                       # number of arm instructions executed (Count)
system.workload.inst.quiesce                        0                       # number of quiesce instructions executed (Count)

---------- End Simulation Statistics   ----------
