
---------- Begin Simulation Statistics ----------
simSeconds                                   0.000056                       # Number of seconds simulated (Second)
simTicks                                     55568000                       # Number of ticks simulated (Tick)
finalTick                                    55568000                       # Number of ticks from beginning of simulation (restored from checkpoints and never reset) (Tick)
simFreq                                  1000000000000                       # The number of ticks per simulated second ((Tick/Second))
hostSeconds                                      0.61                       # Real time elapsed on the host (Second)
hostTickRate                                 91116575                       # The number of ticks simulated per host second (ticks/s) ((Tick/Second))
hostMemory                                     655932                       # Number of bytes of host memory used (Byte)
simInsts                                        13696                       # Number of instructions simulated (Count)
simOps                                          25190                       # Number of ops (including micro ops) simulated (Count)
hostInstRate                                    22455                       # Simulator instruction rate (inst/s) ((Count/Second))
hostOpRate                                      41299                       # Simulator op (including micro ops) rate (op/s) ((Count/Second))
system.clk_domain.clock                          1000                       # Clock period in ticks (Tick)
system.clk_domain.voltage_domain.voltage            1                       # Voltage in Volts (Volt)
system.cpu.numCycles                            55569                       # Number of cpu cycles simulated (Cycle)
system.cpu.numWorkItemsStarted                      0                       # Number of work items this cpu started (Count)
system.cpu.numWorkItemsCompleted                    0                       # Number of work items this cpu completed (Count)
system.cpu.instsAdded                           38907                       # Number of instructions added to the IQ (excludes non-spec) (Count)
system.cpu.nonSpecInstsAdded                       12                       # Number of non-speculative instructions added to the IQ (Count)
system.cpu.instsIssued                          35657                       # Number of instructions issued (Count)
system.cpu.squashedInstsIssued                     98                       # Number of squashed instructions issued (Count)
system.cpu.squashedInstsExamined                13723                       # Number of squashed instructions iterated over during squash; mainly for profiling (Count)
system.cpu.squashedOperandsExamined             15616                       # Number of squashed operands that are examined and possibly removed from graph (Count)
system.cpu.squashedNonSpecRemoved                  12                       # Number of squashed non-spec instructions that were removed (Count)
system.cpu.numIssuedDist::samples               33016                       # Number of insts issued each cycle (Count)
system.cpu.numIssuedDist::mean               1.079992                       # Number of insts issued each cycle (Count)
system.cpu.numIssuedDist::stdev              1.926247                       # Number of insts issued each cycle (Count)
system.cpu.numIssuedDist::underflows                0      0.00%      0.00% # Number of insts issued each cycle (Count)
system.cpu.numIssuedDist::0                     22270     67.45%     67.45% # Number of insts issued each cycle (Count)
system.cpu.numIssuedDist::1                      2607      7.90%     75.35% # Number of insts issued each cycle (Count)
system.cpu.numIssuedDist::2                      1883      5.70%     81.05% # Number of insts issued each cycle (Count)
system.cpu.numIssuedDist::3                      1736      5.26%     86.31% # Number of insts issued each cycle (Count)
system.cpu.numIssuedDist::4                      1519      4.60%     90.91% # Number of insts issued each cycle (Count)
system.cpu.numIssuedDist::5                      1160      3.51%     94.42% # Number of insts issued each cycle (Count)
system.cpu.numIssuedDist::6                      1019      3.09%     97.51% # Number of insts issued each cycle (Count)
system.cpu.numIssuedDist::7                       490      1.48%     98.99% # Number of insts issued each cycle (Count)
system.cpu.numIssuedDist::8                       332      1.01%    100.00% # Number of insts issued each cycle (Count)
system.cpu.numIssuedDist::overflows                 0      0.00%    100.00% # Number of insts issued each cycle (Count)
system.cpu.numIssuedDist::min_value                 0                       # Number of insts issued each cycle (Count)
system.cpu.numIssuedDist::max_value                 8                       # Number of insts issued each cycle (Count)
system.cpu.numIssuedDist::total                 33016                       # Number of insts issued each cycle (Count)
system.cpu.statFuBusy::No_OpClass                   0      0.00%      0.00% # attempts to use FU when none available (Count)
system.cpu.statFuBusy::IntAlu                     304     78.76%     78.76% # attempts to use FU when none available (Count)
system.cpu.statFuBusy::IntMult                      0      0.00%     78.76% # attempts to use FU when none available (Count)
system.cpu.statFuBusy::IntDiv                       0      0.00%     78.76% # attempts to use FU when none available (Count)
system.cpu.statFuBusy::FloatAdd                     0      0.00%     78.76% # attempts to use FU when none available (Count)
system.cpu.statFuBusy::FloatCmp                     0      0.00%     78.76% # attempts to use FU when none available (Count)
system.cpu.statFuBusy::FloatCvt                     0      0.00%     78.76% # attempts to use FU when none available (Count)
system.cpu.statFuBusy::FloatMult                    0      0.00%     78.76% # attempts to use FU when none available (Count)
system.cpu.statFuBusy::FloatMultAcc                 0      0.00%     78.76% # attempts to use FU when none available (Count)
system.cpu.statFuBusy::FloatDiv                     0      0.00%     78.76% # attempts to use FU when none available (Count)
system.cpu.statFuBusy::FloatMisc                    0      0.00%     78.76% # attempts to use FU when none available (Count)
system.cpu.statFuBusy::FloatSqrt                    0      0.00%     78.76% # attempts to use FU when none available (Count)
system.cpu.statFuBusy::SimdAdd                      0      0.00%     78.76% # attempts to use FU when none available (Count)
system.cpu.statFuBusy::SimdAddAcc                   0      0.00%     78.76% # attempts to use FU when none available (Count)
system.cpu.statFuBusy::SimdAlu                     10      2.59%     81.35% # attempts to use FU when none available (Count)
system.cpu.statFuBusy::SimdCmp                      0      0.00%     81.35% # attempts to use FU when none available (Count)
system.cpu.statFuBusy::SimdCvt                      3      0.78%     82.12% # attempts to use FU when none available (Count)
system.cpu.statFuBusy::SimdMisc                     1      0.26%     82.38% # attempts to use FU when none available (Count)
system.cpu.statFuBusy::SimdMult                     0      0.00%     82.38% # attempts to use FU when none available (Count)
system.cpu.statFuBusy::SimdMultAcc                  0      0.00%     82.38% # attempts to use FU when none available (Count)
system.cpu.statFuBusy::SimdShift                    0      0.00%     82.38% # attempts to use FU when none available (Count)
system.cpu.statFuBusy::SimdShiftAcc                 0      0.00%     82.38% # attempts to use FU when none available (Count)
system.cpu.statFuBusy::SimdDiv                      0      0.00%     82.38% # attempts to use FU when none available (Count)
system.cpu.statFuBusy::SimdSqrt                     0      0.00%     82.38% # attempts to use FU when none available (Count)
system.cpu.statFuBusy::SimdFloatAdd                 0      0.00%     82.38% # attempts to use FU when none available (Count)
system.cpu.statFuBusy::SimdFloatAlu                 0      0.00%     82.38% # attempts to use FU when none available (Count)
system.cpu.statFuBusy::SimdFloatCmp                 0      0.00%     82.38% # attempts to use FU when none available (Count)
system.cpu.statFuBusy::SimdFloatCvt                 0      0.00%     82.38% # attempts to use FU when none available (Count)
system.cpu.statFuBusy::SimdFloatDiv                 0      0.00%     82.38% # attempts to use FU when none available (Count)
system.cpu.statFuBusy::SimdFloatMisc                0      0.00%     82.38% # attempts to use FU when none available (Count)
system.cpu.statFuBusy::SimdFloatMult                0      0.00%     82.38% # attempts to use FU when none available (Count)
system.cpu.statFuBusy::SimdFloatMultAcc             0      0.00%     82.38% # attempts to use FU when none available (Count)
system.cpu.statFuBusy::SimdFloatSqrt                0      0.00%     82.38% # attempts to use FU when none available (Count)
system.cpu.statFuBusy::SimdReduceAdd                0      0.00%     82.38% # attempts to use FU when none available (Count)
system.cpu.statFuBusy::SimdReduceAlu                0      0.00%     82.38% # attempts to use FU when none available (Count)
system.cpu.statFuBusy::SimdReduceCmp                0      0.00%     82.38% # attempts to use FU when none available (Count)
system.cpu.statFuBusy::SimdFloatReduceAdd            0      0.00%     82.38% # attempts to use FU when none available (Count)
system.cpu.statFuBusy::SimdFloatReduceCmp            0      0.00%     82.38% # attempts to use FU when none available (Count)
system.cpu.statFuBusy::SimdAes                      0      0.00%     82.38% # attempts to use FU when none available (Count)
system.cpu.statFuBusy::SimdAesMix                   0      0.00%     82.38% # attempts to use FU when none available (Count)
system.cpu.statFuBusy::SimdSha1Hash                 0      0.00%     82.38% # attempts to use FU when none available (Count)
system.cpu.statFuBusy::SimdSha1Hash2                0      0.00%     82.38% # attempts to use FU when none available (Count)
system.cpu.statFuBusy::SimdSha256Hash               0      0.00%     82.38% # attempts to use FU when none available (Count)
system.cpu.statFuBusy::SimdSha256Hash2              0      0.00%     82.38% # attempts to use FU when none available (Count)
system.cpu.statFuBusy::SimdShaSigma2                0      0.00%     82.38% # attempts to use FU when none available (Count)
system.cpu.statFuBusy::SimdShaSigma3                0      0.00%     82.38% # attempts to use FU when none available (Count)
system.cpu.statFuBusy::SimdPredAlu                  0      0.00%     82.38% # attempts to use FU when none available (Count)
system.cpu.statFuBusy::MemRead                     35      9.07%     91.45% # attempts to use FU when none available (Count)
system.cpu.statFuBusy::MemWrite                    19      4.92%     96.37% # attempts to use FU when none available (Count)
system.cpu.statFuBusy::FloatMemRead                 5      1.30%     97.67% # attempts to use FU when none available (Count)
system.cpu.statFuBusy::FloatMemWrite                9      2.33%    100.00% # attempts to use FU when none available (Count)
system.cpu.statFuBusy::IprAccess                    0      0.00%    100.00% # attempts to use FU when none available (Count)
system.cpu.statFuBusy::InstPrefetch                 0      0.00%    100.00% # attempts to use FU when none available (Count)
system.cpu.statIssuedInstType_0::No_OpClass          444      1.25%      1.25% # Number of instructions issued per FU type, per thread (Count)
system.cpu.statIssuedInstType_0::IntAlu         28222     79.15%     80.39% # Number of instructions issued per FU type, per thread (Count)
system.cpu.statIssuedInstType_0::IntMult          522      1.46%     81.86% # Number of instructions issued per FU type, per thread (Count)
system.cpu.statIssuedInstType_0::IntDiv            21      0.06%     81.92% # Number of instructions issued per FU type, per thread (Count)
system.cpu.statIssuedInstType_0::FloatAdd          140      0.39%     82.31% # Number of instructions issued per FU type, per thread (Count)
system.cpu.statIssuedInstType_0::FloatCmp            0      0.00%     82.31% # Number of instructions issued per FU type, per thread (Count)
system.cpu.statIssuedInstType_0::FloatCvt            0      0.00%     82.31% # Number of instructions issued per FU type, per thread (Count)
system.cpu.statIssuedInstType_0::FloatMult            0      0.00%     82.31% # Number of instructions issued per FU type, per thread (Count)
system.cpu.statIssuedInstType_0::FloatMultAcc            0      0.00%     82.31% # Number of instructions issued per FU type, per thread (Count)
system.cpu.statIssuedInstType_0::FloatDiv            0      0.00%     82.31% # Number of instructions issued per FU type, per thread (Count)
system.cpu.statIssuedInstType_0::FloatMisc            0      0.00%     82.31% # Number of instructions issued per FU type, per thread (Count)
system.cpu.statIssuedInstType_0::FloatSqrt            0      0.00%     82.31% # Number of instructions issued per FU type, per thread (Count)
system.cpu.statIssuedInstType_0::SimdAdd            8      0.02%     82.33% # Number of instructions issued per FU type, per thread (Count)
system.cpu.statIssuedInstType_0::SimdAddAcc            0      0.00%     82.33% # Number of instructions issued per FU type, per thread (Count)
system.cpu.statIssuedInstType_0::SimdAlu          152      0.43%     82.76% # Number of instructions issued per FU type, per thread (Count)
system.cpu.statIssuedInstType_0::SimdCmp            6      0.02%     82.77% # Number of instructions issued per FU type, per thread (Count)
system.cpu.statIssuedInstType_0::SimdCvt           64      0.18%     82.95% # Number of instructions issued per FU type, per thread (Count)
system.cpu.statIssuedInstType_0::SimdMisc          237      0.66%     83.62% # Number of instructions issued per FU type, per thread (Count)
system.cpu.statIssuedInstType_0::SimdMult            0      0.00%     83.62% # Number of instructions issued per FU type, per thread (Count)
system.cpu.statIssuedInstType_0::SimdMultAcc            0      0.00%     83.62% # Number of instructions issued per FU type, per thread (Count)
system.cpu.statIssuedInstType_0::SimdShift            0      0.00%     83.62% # Number of instructions issued per FU type, per thread (Count)
system.cpu.statIssuedInstType_0::SimdShiftAcc            0      0.00%     83.62% # Number of instructions issued per FU type, per thread (Count)
system.cpu.statIssuedInstType_0::SimdDiv            0      0.00%     83.62% # Number of instructions issued per FU type, per thread (Count)
system.cpu.statIssuedInstType_0::SimdSqrt            0      0.00%     83.62% # Number of instructions issued per FU type, per thread (Count)
system.cpu.statIssuedInstType_0::SimdFloatAdd            0      0.00%     83.62% # Number of instructions issued per FU type, per thread (Count)
system.cpu.statIssuedInstType_0::SimdFloatAlu            0      0.00%     83.62% # Number of instructions issued per FU type, per thread (Count)
system.cpu.statIssuedInstType_0::SimdFloatCmp            0      0.00%     83.62% # Number of instructions issued per FU type, per thread (Count)
system.cpu.statIssuedInstType_0::SimdFloatCvt            8      0.02%     83.64% # Number of instructions issued per FU type, per thread (Count)
system.cpu.statIssuedInstType_0::SimdFloatDiv            0      0.00%     83.64% # Number of instructions issued per FU type, per thread (Count)
system.cpu.statIssuedInstType_0::SimdFloatMisc            0      0.00%     83.64% # Number of instructions issued per FU type, per thread (Count)
system.cpu.statIssuedInstType_0::SimdFloatMult            9      0.03%     83.67% # Number of instructions issued per FU type, per thread (Count)
system.cpu.statIssuedInstType_0::SimdFloatMultAcc            0      0.00%     83.67% # Number of instructions issued per FU type, per thread (Count)
system.cpu.statIssuedInstType_0::SimdFloatSqrt            0      0.00%     83.67% # Number of instructions issued per FU type, per thread (Count)
system.cpu.statIssuedInstType_0::SimdReduceAdd            0      0.00%     83.67% # Number of instructions issued per FU type, per thread (Count)
system.cpu.statIssuedInstType_0::SimdReduceAlu            0      0.00%     83.67% # Number of instructions issued per FU type, per thread (Count)
system.cpu.statIssuedInstType_0::SimdReduceCmp            0      0.00%     83.67% # Number of instructions issued per FU type, per thread (Count)
system.cpu.statIssuedInstType_0::SimdFloatReduceAdd            0      0.00%     83.67% # Number of instructions issued per FU type, per thread (Count)
system.cpu.statIssuedInstType_0::SimdFloatReduceCmp            0      0.00%     83.67% # Number of instructions issued per FU type, per thread (Count)
system.cpu.statIssuedInstType_0::SimdAes            0      0.00%     83.67% # Number of instructions issued per FU type, per thread (Count)
system.cpu.statIssuedInstType_0::SimdAesMix            0      0.00%     83.67% # Number of instructions issued per FU type, per thread (Count)
system.cpu.statIssuedInstType_0::SimdSha1Hash            0      0.00%     83.67% # Number of instructions issued per FU type, per thread (Count)
system.cpu.statIssuedInstType_0::SimdSha1Hash2            0      0.00%     83.67% # Number of instructions issued per FU type, per thread (Count)
system.cpu.statIssuedInstType_0::SimdSha256Hash            0      0.00%     83.67% # Number of instructions issued per FU type, per thread (Count)
system.cpu.statIssuedInstType_0::SimdSha256Hash2            0      0.00%     83.67% # Number of instructions issued per FU type, per thread (Count)
system.cpu.statIssuedInstType_0::SimdShaSigma2            0      0.00%     83.67% # Number of instructions issued per FU type, per thread (Count)
system.cpu.statIssuedInstType_0::SimdShaSigma3            0      0.00%     83.67% # Number of instructions issued per FU type, per thread (Count)
system.cpu.statIssuedInstType_0::SimdPredAlu            0      0.00%     83.67% # Number of instructions issued per FU type, per thread (Count)
system.cpu.statIssuedInstType_0::MemRead         3092      8.67%     92.34% # Number of instructions issued per FU type, per thread (Count)
system.cpu.statIssuedInstType_0::MemWrite         2081      5.84%     98.17% # Number of instructions issued per FU type, per thread (Count)
system.cpu.statIssuedInstType_0::FloatMemRead           95      0.27%     98.44% # Number of instructions issued per FU type, per thread (Count)
system.cpu.statIssuedInstType_0::FloatMemWrite          556      1.56%    100.00% # Number of instructions issued per FU type, per thread (Count)
system.cpu.statIssuedInstType_0::IprAccess            0      0.00%    100.00% # Number of instructions issued per FU type, per thread (Count)
system.cpu.statIssuedInstType_0::InstPrefetch            0      0.00%    100.00% # Number of instructions issued per FU type, per thread (Count)
system.cpu.statIssuedInstType_0::total          35657                       # Number of instructions issued per FU type, per thread (Count)
system.cpu.issueRate                         0.641671                       # Inst issue rate ((Count/Cycle))
system.cpu.fuBusy                                 386                       # FU busy when requested (Count)
system.cpu.fuBusyRate                        0.010825                       # FU busy rate (busy events/executed inst) ((Count/Count))
system.cpu.intInstQueueReads                   101920                       # Number of integer instruction queue reads (Count)
system.cpu.intInstQueueWrites                   50944                       # Number of integer instruction queue writes (Count)
system.cpu.intInstQueueWakeupAccesses           32498                       # Number of integer instruction queue wakeup accesses (Count)
system.cpu.fpInstQueueReads                      2894                       # Number of floating instruction queue reads (Count)
system.cpu.fpInstQueueWrites                     1709                       # Number of floating instruction queue writes (Count)
system.cpu.fpInstQueueWakeupAccesses             1391                       # Number of floating instruction queue wakeup accesses (Count)
system.cpu.vecInstQueueReads                        0                       # Number of vector instruction queue reads (Count)
system.cpu.vecInstQueueWrites                       0                       # Number of vector instruction queue writes (Count)
system.cpu.vecInstQueueWakeupAccesses               0                       # Number of vector instruction queue wakeup accesses (Count)
system.cpu.intAluAccesses                       34142                       # Number of integer alu accesses (Count)
system.cpu.fpAluAccesses                         1457                       # Number of floating point alu accesses (Count)
system.cpu.vecAluAccesses                           0                       # Number of vector alu accesses (Count)
system.cpu.idleCycles                               0                       # Number of cycles IEW is idle (Cycle)
system.cpu.squashCycles                           608                       # Number of cycles IEW is squashing (Cycle)
system.cpu.blockCycles                           2073                       # Number of cycles IEW is blocking (Cycle)
system.cpu.unblockCycles                          711                       # Number of cycles IEW is unblocking (Cycle)
system.cpu.dispatchedInsts                      38919                       # Number of instructions dispatched to IQ (Count)
system.cpu.dispSquashedInsts                       35                       # Number of squashed instructions skipped by dispatch (Count)
system.cpu.dispLoadInsts                         3442                       # Number of dispatched load instructions (Count)
system.cpu.dispStoreInsts                        3060                       # Number of dispatched store instructions (Count)
system.cpu.dispNonSpecInsts                         6                       # Number of dispatched non-speculative instructions (Count)
system.cpu.iqFullEvents                            69                       # Number of times the IQ has become full, causing a stall (Count)
system.cpu.lsqFullEvents                          640                       # Number of times the LSQ has become full, causing a stall (Count)
system.cpu.memOrderViolationEvents                 12                       # Number of memory order violations (Count)
system.cpu.predictedTakenIncorrect                 52                       # Number of branches that were predicted taken incorrectly (Count)
system.cpu.predictedNotTakenIncorrect             656                       # Number of branches that were predicted not taken incorrectly (Count)
system.cpu.branchMispredicts                      708                       # Number of branch mispredicts detected at execute (Count)
system.cpu.numInsts                             34600                       # Number of executed instructions (Count)
system.cpu.numLoadInsts                          2948                       # Number of load instructions executed (Count)
system.cpu.numSquashedInsts                      1057                       # Number of squashed instructions skipped in execute (Count)
system.cpu.numSwp                                   0                       # Number of swp insts executed (Count)
system.cpu.numNop                                   0                       # Number of nop insts executed (Count)
system.cpu.numRefs                               5482                       # Number of memory reference insts executed (Count)
system.cpu.numBranches                           3115                       # Number of branches executed (Count)
system.cpu.numStoreInsts                         2534                       # Number of stores executed (Count)
system.cpu.numRate                           0.622649                       # Inst execution rate ((Count/Cycle))
system.cpu.instsToCommit                        34223                       # Cumulative count of insts sent to commit (Count)
system.cpu.writebackCount                       33889                       # Cumulative count of insts written-back (Count)
system.cpu.producerInst                         23789                       # Number of instructions producing a value (Count)
system.cpu.consumerInst                         39327                       # Number of instructions consuming a value (Count)
system.cpu.wbRate                            0.609854                       # Insts written-back per cycle ((Count/Cycle))
system.cpu.wbFanout                          0.604902                       # Average fanout of values written-back ((Count/Count))
system.cpu.timesIdled                             322                       # Number of times that the entire CPU went into an idle state and unscheduled itself (Count)
system.cpu.idleCycles                           22553                       # Total number of cycles that the CPU has spent unscheduled due to idling (Cycle)
system.cpu.committedInsts                       13696                       # Number of Instructions Simulated (Count)
system.cpu.committedOps                         25190                       # Number of Ops (including micro ops) Simulated (Count)
system.cpu.cpi                               4.057316                       # CPI: Cycles Per Instruction ((Cycle/Count))
system.cpu.totalCpi                          4.057316                       # CPI: Total CPI of All Threads ((Cycle/Count))
system.cpu.ipc                               0.246468                       # IPC: Instructions Per Cycle ((Count/Cycle))
system.cpu.totalIpc                          0.246468                       # IPC: Total IPC of All Threads ((Count/Cycle))
system.cpu.intRegfileReads                      49031                       # Number of integer regfile reads (Count)
system.cpu.intRegfileWrites                     27671                       # Number of integer regfile writes (Count)
system.cpu.fpRegfileReads                        1717                       # Number of floating regfile reads (Count)
system.cpu.fpRegfileWrites                        783                       # Number of floating regfile writes (Count)
system.cpu.ccRegfileReads                       16182                       # number of cc regfile reads (Count)
system.cpu.ccRegfileWrites                      12770                       # number of cc regfile writes (Count)
system.cpu.miscRegfileReads                     12672                       # number of misc regfile reads (Count)
system.cpu.MemDepUnit__0.insertedLoads           3442                       # Number of loads inserted to the mem dependence unit. (Count)
system.cpu.MemDepUnit__0.insertedStores          3060                       # Number of stores inserted to the mem dependence unit. (Count)
system.cpu.MemDepUnit__0.conflictingLoads           25                       # Number of conflicting loads. (Count)
system.cpu.MemDepUnit__0.conflictingStores            6                       # Number of conflicting stores. (Count)
system.cpu.MemDepUnit__1.insertedLoads              0                       # Number of loads inserted to the mem dependence unit. (Count)
system.cpu.MemDepUnit__1.insertedStores             0                       # Number of stores inserted to the mem dependence unit. (Count)
system.cpu.MemDepUnit__1.conflictingLoads            0                       # Number of conflicting loads. (Count)
system.cpu.MemDepUnit__1.conflictingStores            0                       # Number of conflicting stores. (Count)
system.cpu.MemDepUnit__2.insertedLoads              0                       # Number of loads inserted to the mem dependence unit. (Count)
system.cpu.MemDepUnit__2.insertedStores             0                       # Number of stores inserted to the mem dependence unit. (Count)
system.cpu.MemDepUnit__2.conflictingLoads            0                       # Number of conflicting loads. (Count)
system.cpu.MemDepUnit__2.conflictingStores            0                       # Number of conflicting stores. (Count)
system.cpu.MemDepUnit__3.insertedLoads              0                       # Number of loads inserted to the mem dependence unit. (Count)
system.cpu.MemDepUnit__3.insertedStores             0                       # Number of stores inserted to the mem dependence unit. (Count)
system.cpu.MemDepUnit__3.conflictingLoads            0                       # Number of conflicting loads. (Count)
system.cpu.MemDepUnit__3.conflictingStores            0                       # Number of conflicting stores. (Count)
system.cpu.branchPred.lookups                    4919                       # Number of BP lookups (Count)
system.cpu.branchPred.condPredicted              3282                       # Number of conditional branches predicted (Count)
system.cpu.branchPred.condIncorrect               723                       # Number of conditional branches incorrect (Count)
system.cpu.branchPred.BTBLookups                 2359                       # Number of BTB lookups (Count)
system.cpu.branchPred.BTBHits                    1569                       # Number of BTB hits (Count)
system.cpu.branchPred.BTBHitRatio            0.665112                       # BTB Hit Ratio (Ratio)
system.cpu.branchPred.RASUsed                     429                       # Number of times the RAS was used to get a target. (Count)
system.cpu.branchPred.RASIncorrect                  0                       # Number of incorrect RAS predictions. (Count)
system.cpu.branchPred.indirectLookups             398                       # Number of indirect predictor lookups. (Count)
system.cpu.branchPred.indirectHits                 21                       # Number of indirect target hits. (Count)
system.cpu.branchPred.indirectMisses              377                       # Number of indirect misses. (Count)
system.cpu.branchPred.indirectMispredicted           95                       # Number of mispredicted indirect branches. (Count)
system.cpu.commit.commitSquashedInsts           13524                       # The number of squashed insts skipped by commit (Count)
system.cpu.commit.branchMispredicts               585                       # The number of times a branch was mispredicted (Count)
system.cpu.commit.numCommittedDist::samples        30898                       # Number of insts commited each cycle (Count)
system.cpu.commit.numCommittedDist::mean     0.815263                       # Number of insts commited each cycle (Count)
system.cpu.commit.numCommittedDist::stdev     1.846520                       # Number of insts commited each cycle (Count)
system.cpu.commit.numCommittedDist::underflows            0      0.00%      0.00% # Number of insts commited each cycle (Count)
system.cpu.commit.numCommittedDist::0           22732     73.57%     73.57% # Number of insts commited each cycle (Count)
system.cpu.commit.numCommittedDist::1            3119     10.09%     83.67% # Number of insts commited each cycle (Count)
system.cpu.commit.numCommittedDist::2            1227      3.97%     87.64% # Number of insts commited each cycle (Count)
system.cpu.commit.numCommittedDist::3            1432      4.63%     92.27% # Number of insts commited each cycle (Count)
system.cpu.commit.numCommittedDist::4             536      1.73%     94.01% # Number of insts commited each cycle (Count)
system.cpu.commit.numCommittedDist::5             350      1.13%     95.14% # Number of insts commited each cycle (Count)
system.cpu.commit.numCommittedDist::6             175      0.57%     95.71% # Number of insts commited each cycle (Count)
system.cpu.commit.numCommittedDist::7             239      0.77%     96.48% # Number of insts commited each cycle (Count)
system.cpu.commit.numCommittedDist::8            1088      3.52%    100.00% # Number of insts commited each cycle (Count)
system.cpu.commit.numCommittedDist::overflows            0      0.00%    100.00% # Number of insts commited each cycle (Count)
system.cpu.commit.numCommittedDist::min_value            0                       # Number of insts commited each cycle (Count)
system.cpu.commit.numCommittedDist::max_value            8                       # Number of insts commited each cycle (Count)
system.cpu.commit.numCommittedDist::total        30898                       # Number of insts commited each cycle (Count)
system.cpu.commit.instsCommitted                13696                       # Number of instructions committed (Count)
system.cpu.commit.opsCommitted                  25190                       # Number of ops (including micro ops) committed (Count)
system.cpu.commit.memRefs                        3702                       # Number of memory references committed (Count)
system.cpu.commit.loads                          1757                       # Number of loads committed (Count)
system.cpu.commit.amos                              0                       # Number of atomic instructions committed (Count)
system.cpu.commit.membars                           0                       # Number of memory barriers committed (Count)
system.cpu.commit.branches                       2346                       # Number of branches committed (Count)
system.cpu.commit.vectorInstructions                0                       # Number of committed Vector instructions. (Count)
system.cpu.commit.floating                       1255                       # Number of committed floating point instructions. (Count)
system.cpu.commit.integer                       24399                       # Number of committed integer instructions. (Count)
system.cpu.commit.functionCalls                   278                       # Number of function calls committed. (Count)
system.cpu.commit.committedInstType_0::No_OpClass          173      0.69%      0.69% # Class of committed instruction (Count)
system.cpu.commit.committedInstType_0::IntAlu        20217     80.26%     80.94% # Class of committed instruction (Count)
system.cpu.commit.committedInstType_0::IntMult          520      2.06%     83.01% # Class of committed instruction (Count)
system.cpu.commit.committedInstType_0::IntDiv           21      0.08%     83.09% # Class of committed instruction (Count)
system.cpu.commit.committedInstType_0::FloatAdd          137      0.54%     83.64% # Class of committed instruction (Count)
system.cpu.commit.committedInstType_0::FloatCmp            0      0.00%     83.64% # Class of committed instruction (Count)
system.cpu.commit.committedInstType_0::FloatCvt            0      0.00%     83.64% # Class of committed instruction (Count)
system.cpu.commit.committedInstType_0::FloatMult            0      0.00%     83.64% # Class of committed instruction (Count)
system.cpu.commit.committedInstType_0::FloatMultAcc            0      0.00%     83.64% # Class of committed instruction (Count)
system.cpu.commit.committedInstType_0::FloatDiv            0      0.00%     83.64% # Class of committed instruction (Count)
system.cpu.commit.committedInstType_0::FloatMisc            0      0.00%     83.64% # Class of committed instruction (Count)
system.cpu.commit.committedInstType_0::FloatSqrt            0      0.00%     83.64% # Class of committed instruction (Count)
system.cpu.commit.committedInstType_0::SimdAdd            8      0.03%     83.67% # Class of committed instruction (Count)
system.cpu.commit.committedInstType_0::SimdAddAcc            0      0.00%     83.67% # Class of committed instruction (Count)
system.cpu.commit.committedInstType_0::SimdAlu           98      0.39%     84.06% # Class of committed instruction (Count)
system.cpu.commit.committedInstType_0::SimdCmp            6      0.02%     84.08% # Class of committed instruction (Count)
system.cpu.commit.committedInstType_0::SimdCvt           64      0.25%     84.34% # Class of committed instruction (Count)
system.cpu.commit.committedInstType_0::SimdMisc          234      0.93%     85.26% # Class of committed instruction (Count)
system.cpu.commit.committedInstType_0::SimdMult            0      0.00%     85.26% # Class of committed instruction (Count)
system.cpu.commit.committedInstType_0::SimdMultAcc            0      0.00%     85.26% # Class of committed instruction (Count)
system.cpu.commit.committedInstType_0::SimdShift            0      0.00%     85.26% # Class of committed instruction (Count)
system.cpu.commit.committedInstType_0::SimdShiftAcc            0      0.00%     85.26% # Class of committed instruction (Count)
system.cpu.commit.committedInstType_0::SimdDiv            0      0.00%     85.26% # Class of committed instruction (Count)
system.cpu.commit.committedInstType_0::SimdSqrt            0      0.00%     85.26% # Class of committed instruction (Count)
system.cpu.commit.committedInstType_0::SimdFloatAdd            0      0.00%     85.26% # Class of committed instruction (Count)
system.cpu.commit.committedInstType_0::SimdFloatAlu            0      0.00%     85.26% # Class of committed instruction (Count)
system.cpu.commit.committedInstType_0::SimdFloatCmp            0      0.00%     85.26% # Class of committed instruction (Count)
system.cpu.commit.committedInstType_0::SimdFloatCvt            5      0.02%     85.28% # Class of committed instruction (Count)
system.cpu.commit.committedInstType_0::SimdFloatDiv            0      0.00%     85.28% # Class of committed instruction (Count)
system.cpu.commit.committedInstType_0::SimdFloatMisc            0      0.00%     85.28% # Class of committed instruction (Count)
system.cpu.commit.committedInstType_0::SimdFloatMult            5      0.02%     85.30% # Class of committed instruction (Count)
system.cpu.commit.committedInstType_0::SimdFloatMultAcc            0      0.00%     85.30% # Class of committed instruction (Count)
system.cpu.commit.committedInstType_0::SimdFloatSqrt            0      0.00%     85.30% # Class of committed instruction (Count)
system.cpu.commit.committedInstType_0::SimdReduceAdd            0      0.00%     85.30% # Class of committed instruction (Count)
system.cpu.commit.committedInstType_0::SimdReduceAlu            0      0.00%     85.30% # Class of committed instruction (Count)
system.cpu.commit.committedInstType_0::SimdReduceCmp            0      0.00%     85.30% # Class of committed instruction (Count)
system.cpu.commit.committedInstType_0::SimdFloatReduceAdd            0      0.00%     85.30% # Class of committed instruction (Count)
system.cpu.commit.committedInstType_0::SimdFloatReduceCmp            0      0.00%     85.30% # Class of committed instruction (Count)
system.cpu.commit.committedInstType_0::SimdAes            0      0.00%     85.30% # Class of committed instruction (Count)
system.cpu.commit.committedInstType_0::SimdAesMix            0      0.00%     85.30% # Class of committed instruction (Count)
system.cpu.commit.committedInstType_0::SimdSha1Hash            0      0.00%     85.30% # Class of committed instruction (Count)
system.cpu.commit.committedInstType_0::SimdSha1Hash2            0      0.00%     85.30% # Class of committed instruction (Count)
system.cpu.commit.committedInstType_0::SimdSha256Hash            0      0.00%     85.30% # Class of committed instruction (Count)
system.cpu.commit.committedInstType_0::SimdSha256Hash2            0      0.00%     85.30% # Class of committed instruction (Count)
system.cpu.commit.committedInstType_0::SimdShaSigma2            0      0.00%     85.30% # Class of committed instruction (Count)
system.cpu.commit.committedInstType_0::SimdShaSigma3            0      0.00%     85.30% # Class of committed instruction (Count)
system.cpu.commit.committedInstType_0::SimdPredAlu            0      0.00%     85.30% # Class of committed instruction (Count)
system.cpu.commit.committedInstType_0::MemRead         1686      6.69%     92.00% # Class of committed instruction (Count)
system.cpu.commit.committedInstType_0::MemWrite         1471      5.84%     97.84% # Class of committed instruction (Count)
system.cpu.commit.committedInstType_0::FloatMemRead           71      0.28%     98.12% # Class of committed instruction (Count)
system.cpu.commit.committedInstType_0::FloatMemWrite          474      1.88%    100.00% # Class of committed instruction (Count)
system.cpu.commit.committedInstType_0::IprAccess            0      0.00%    100.00% # Class of committed instruction (Count)
system.cpu.commit.committedInstType_0::InstPrefetch            0      0.00%    100.00% # Class of committed instruction (Count)
system.cpu.commit.committedInstType_0::total        25190                       # Class of committed instruction (Count)
system.cpu.commit.commitEligibleSamples          1088                       # number cycles where commit BW limit reached (Cycle)
system.cpu.dcache.demandHits::cpu.data           4080                       # number of demand (read+write) hits (Count)
system.cpu.dcache.demandHits::total              4080                       # number of demand (read+write) hits (Count)
system.cpu.dcache.overallHits::cpu.data          4080                       # number of overall hits (Count)
system.cpu.dcache.overallHits::total             4080                       # number of overall hits (Count)
system.cpu.dcache.demandMisses::cpu.data          391                       # number of demand (read+write) misses (Count)
system.cpu.dcache.demandMisses::total             391                       # number of demand (read+write) misses (Count)
system.cpu.dcache.overallMisses::cpu.data          391                       # number of overall misses (Count)
system.cpu.dcache.overallMisses::total            391                       # number of overall misses (Count)
system.cpu.dcache.demandMissLatency::cpu.data     39691998                       # number of demand (read+write) miss ticks (Tick)
system.cpu.dcache.demandMissLatency::total     39691998                       # number of demand (read+write) miss ticks (Tick)
system.cpu.dcache.overallMissLatency::cpu.data     39691998                       # number of overall miss ticks (Tick)
system.cpu.dcache.overallMissLatency::total     39691998                       # number of overall miss ticks (Tick)
system.cpu.dcache.demandAccesses::cpu.data         4471                       # number of demand (read+write) accesses (Count)
system.cpu.dcache.demandAccesses::total          4471                       # number of demand (read+write) accesses (Count)
system.cpu.dcache.overallAccesses::cpu.data         4471                       # number of overall (read+write) accesses (Count)
system.cpu.dcache.overallAccesses::total         4471                       # number of overall (read+write) accesses (Count)
system.cpu.dcache.demandMissRate::cpu.data     0.087452                       # miss rate for demand accesses (Ratio)
system.cpu.dcache.demandMissRate::total      0.087452                       # miss rate for demand accesses (Ratio)
system.cpu.dcache.overallMissRate::cpu.data     0.087452                       # miss rate for overall accesses (Ratio)
system.cpu.dcache.overallMissRate::total     0.087452                       # miss rate for overall accesses (Ratio)
system.cpu.dcache.demandAvgMissLatency::cpu.data 101514.061381                       # average overall miss latency ((Cycle/Count))
system.cpu.dcache.demandAvgMissLatency::total 101514.061381                       # average overall miss latency ((Cycle/Count))
system.cpu.dcache.overallAvgMissLatency::cpu.data 101514.061381                       # average overall miss latency ((Cycle/Count))
system.cpu.dcache.overallAvgMissLatency::total 101514.061381                       # average overall miss latency ((Cycle/Count))
system.cpu.dcache.blockedCycles::no_mshrs          558                       # number of cycles access was blocked (Cycle)
system.cpu.dcache.blockedCycles::no_targets            0                       # number of cycles access was blocked (Cycle)
system.cpu.dcache.blockedCauses::no_mshrs           17                       # number of times access was blocked (Count)
system.cpu.dcache.blockedCauses::no_targets            0                       # number of times access was blocked (Count)
system.cpu.dcache.avgBlocked::no_mshrs      32.823529                       # average number of cycles each access was blocked ((Cycle/Count))
system.cpu.dcache.avgBlocked::no_targets          nan                       # average number of cycles each access was blocked ((Cycle/Count))
system.cpu.dcache.demandMshrHits::cpu.data          135                       # number of demand (read+write) MSHR hits (Count)
system.cpu.dcache.demandMshrHits::total           135                       # number of demand (read+write) MSHR hits (Count)
system.cpu.dcache.overallMshrHits::cpu.data          135                       # number of overall MSHR hits (Count)
system.cpu.dcache.overallMshrHits::total          135                       # number of overall MSHR hits (Count)
system.cpu.dcache.demandMshrMisses::cpu.data          256                       # number of demand (read+write) MSHR misses (Count)
system.cpu.dcache.demandMshrMisses::total          256                       # number of demand (read+write) MSHR misses (Count)
system.cpu.dcache.overallMshrMisses::cpu.data          256                       # number of overall MSHR misses (Count)
system.cpu.dcache.overallMshrMisses::total          256                       # number of overall MSHR misses (Count)
system.cpu.dcache.demandMshrMissLatency::cpu.data     27442999                       # number of demand (read+write) MSHR miss ticks (Tick)
system.cpu.dcache.demandMshrMissLatency::total     27442999                       # number of demand (read+write) MSHR miss ticks (Tick)
system.cpu.dcache.overallMshrMissLatency::cpu.data     27442999                       # number of overall MSHR miss ticks (Tick)
system.cpu.dcache.overallMshrMissLatency::total     27442999                       # number of overall MSHR miss ticks (Tick)
system.cpu.dcache.demandMshrMissRate::cpu.data     0.057258                       # mshr miss ratio for demand accesses (Ratio)
system.cpu.dcache.demandMshrMissRate::total     0.057258                       # mshr miss ratio for demand accesses (Ratio)
system.cpu.dcache.overallMshrMissRate::cpu.data     0.057258                       # mshr miss ratio for overall accesses (Ratio)
system.cpu.dcache.overallMshrMissRate::total     0.057258                       # mshr miss ratio for overall accesses (Ratio)
system.cpu.dcache.demandAvgMshrMissLatency::cpu.data 107199.214844                       # average overall mshr miss latency ((Cycle/Count))
system.cpu.dcache.demandAvgMshrMissLatency::total 107199.214844                       # average overall mshr miss latency ((Cycle/Count))
system.cpu.dcache.overallAvgMshrMissLatency::cpu.data 107199.214844                       # average overall mshr miss latency ((Cycle/Count))
system.cpu.dcache.overallAvgMshrMissLatency::total 107199.214844                       # average overall mshr miss latency ((Cycle/Count))
system.cpu.dcache.replacements                      0                       # number of replacements (Count)
system.cpu.dcache.ReadReq.hits::cpu.data         2262                       # number of ReadReq hits (Count)
system.cpu.dcache.ReadReq.hits::total            2262                       # number of ReadReq hits (Count)
system.cpu.dcache.ReadReq.misses::cpu.data          263                       # number of ReadReq misses (Count)
system.cpu.dcache.ReadReq.misses::total           263                       # number of ReadReq misses (Count)
system.cpu.dcache.ReadReq.missLatency::cpu.data     26490000                       # number of ReadReq miss ticks (Tick)
system.cpu.dcache.ReadReq.missLatency::total     26490000                       # number of ReadReq miss ticks (Tick)
system.cpu.dcache.ReadReq.accesses::cpu.data         2525                       # number of ReadReq accesses(hits+misses) (Count)
system.cpu.dcache.ReadReq.accesses::total         2525                       # number of ReadReq accesses(hits+misses) (Count)
system.cpu.dcache.ReadReq.missRate::cpu.data     0.104158                       # miss rate for ReadReq accesses (Ratio)
system.cpu.dcache.ReadReq.missRate::total     0.104158                       # miss rate for ReadReq accesses (Ratio)
system.cpu.dcache.ReadReq.avgMissLatency::cpu.data 100722.433460                       # average ReadReq miss latency ((Tick/Count))
system.cpu.dcache.ReadReq.avgMissLatency::total 100722.433460                       # average ReadReq miss latency ((Tick/Count))
system.cpu.dcache.ReadReq.mshrHits::cpu.data          132                       # number of ReadReq MSHR hits (Count)
system.cpu.dcache.ReadReq.mshrHits::total          132                       # number of ReadReq MSHR hits (Count)
system.cpu.dcache.ReadReq.mshrMisses::cpu.data          131                       # number of ReadReq MSHR misses (Count)
system.cpu.dcache.ReadReq.mshrMisses::total          131                       # number of ReadReq MSHR misses (Count)
system.cpu.dcache.ReadReq.mshrMissLatency::cpu.data     14660000                       # number of ReadReq MSHR miss ticks (Tick)
system.cpu.dcache.ReadReq.mshrMissLatency::total     14660000                       # number of ReadReq MSHR miss ticks (Tick)
system.cpu.dcache.ReadReq.mshrMissRate::cpu.data     0.051881                       # mshr miss rate for ReadReq accesses (Ratio)
system.cpu.dcache.ReadReq.mshrMissRate::total     0.051881                       # mshr miss rate for ReadReq accesses (Ratio)
system.cpu.dcache.ReadReq.avgMshrMissLatency::cpu.data 111908.396947                       # average ReadReq mshr miss latency ((Tick/Count))
system.cpu.dcache.ReadReq.avgMshrMissLatency::total 111908.396947                       # average ReadReq mshr miss latency ((Tick/Count))
system.cpu.dcache.WriteReq.hits::cpu.data         1818                       # number of WriteReq hits (Count)
system.cpu.dcache.WriteReq.hits::total           1818                       # number of WriteReq hits (Count)
system.cpu.dcache.WriteReq.misses::cpu.data          128                       # number of WriteReq misses (Count)
system.cpu.dcache.WriteReq.misses::total          128                       # number of WriteReq misses (Count)
system.cpu.dcache.WriteReq.missLatency::cpu.data     13201998                       # number of WriteReq miss ticks (Tick)
system.cpu.dcache.WriteReq.missLatency::total     13201998                       # number of WriteReq miss ticks (Tick)
system.cpu.dcache.WriteReq.accesses::cpu.data         1946                       # number of WriteReq accesses(hits+misses) (Count)
system.cpu.dcache.WriteReq.accesses::total         1946                       # number of WriteReq accesses(hits+misses) (Count)
system.cpu.dcache.WriteReq.missRate::cpu.data     0.065776                       # miss rate for WriteReq accesses (Ratio)
system.cpu.dcache.WriteReq.missRate::total     0.065776                       # miss rate for WriteReq accesses (Ratio)
system.cpu.dcache.WriteReq.avgMissLatency::cpu.data 103140.609375                       # average WriteReq miss latency ((Tick/Count))
system.cpu.dcache.WriteReq.avgMissLatency::total 103140.609375                       # average WriteReq miss latency ((Tick/Count))
system.cpu.dcache.WriteReq.mshrHits::cpu.data            3                       # number of WriteReq MSHR hits (Count)
system.cpu.dcache.WriteReq.mshrHits::total            3                       # number of WriteReq MSHR hits (Count)
system.cpu.dcache.WriteReq.mshrMisses::cpu.data          125                       # number of WriteReq MSHR misses (Count)
system.cpu.dcache.WriteReq.mshrMisses::total          125                       # number of WriteReq MSHR misses (Count)
system.cpu.dcache.WriteReq.mshrMissLatency::cpu.data     12782999                       # number of WriteReq MSHR miss ticks (Tick)
system.cpu.dcache.WriteReq.mshrMissLatency::total     12782999                       # number of WriteReq MSHR miss ticks (Tick)
system.cpu.dcache.WriteReq.mshrMissRate::cpu.data     0.064234                       # mshr miss rate for WriteReq accesses (Ratio)
system.cpu.dcache.WriteReq.mshrMissRate::total     0.064234                       # mshr miss rate for WriteReq accesses (Ratio)
system.cpu.dcache.WriteReq.avgMshrMissLatency::cpu.data 102263.992000                       # average WriteReq mshr miss latency ((Tick/Count))
system.cpu.dcache.WriteReq.avgMshrMissLatency::total 102263.992000                       # average WriteReq mshr miss latency ((Tick/Count))
system.cpu.dcache.power_state.pwrStateResidencyTicks::UNDEFINED     55568000                       # Cumulative time (in ticks) in various power states (Tick)
system.cpu.dcache.tags.tagsInUse           145.332747                       # Average ticks per tags in use ((Tick/Count))
system.cpu.dcache.tags.totalRefs                 4336                       # Total number of references to valid blocks. (Count)
system.cpu.dcache.tags.sampledRefs                256                       # Sample count of references to valid blocks. (Count)
system.cpu.dcache.tags.avgRefs              16.937500                       # Average number of references to valid blocks. ((Count/Count))
system.cpu.dcache.tags.warmupTick              222000                       # The tick when the warmup percentage was hit. (Tick)
system.cpu.dcache.tags.occupancies::cpu.data   145.332747                       # Average occupied blocks per tick, per requestor ((Count/Tick))
system.cpu.dcache.tags.avgOccs::cpu.data     0.070963                       # Average percentage of cache occupancy ((Ratio/Tick))
system.cpu.dcache.tags.avgOccs::total        0.070963                       # Average percentage of cache occupancy ((Ratio/Tick))
system.cpu.dcache.tags.occupanciesTaskId::1024          256                       # Occupied blocks per task id (Count)
system.cpu.dcache.tags.ageTaskId_1024::0           38                       # Occupied blocks per task id, per block age (Count)
system.cpu.dcache.tags.ageTaskId_1024::1          218                       # Occupied blocks per task id, per block age (Count)
system.cpu.dcache.tags.ratioOccsTaskId::1024     0.125000                       # Ratio of occupied blocks and all blocks, per task id (Ratio)
system.cpu.dcache.tags.tagAccesses               9198                       # Number of tag accesses (Count)
system.cpu.dcache.tags.dataAccesses              9198                       # Number of data accesses (Count)
system.cpu.dcache.tags.power_state.pwrStateResidencyTicks::UNDEFINED     55568000                       # Cumulative time (in ticks) in various power states (Tick)
system.cpu.decode.idleCycles                    16161                       # Number of cycles decode is idle (Cycle)
system.cpu.decode.blockedCycles                  9695                       # Number of cycles decode is blocked (Cycle)
system.cpu.decode.runCycles                      5382                       # Number of cycles decode is running (Cycle)
system.cpu.decode.unblockCycles                  1170                       # Number of cycles decode is unblocking (Cycle)
system.cpu.decode.squashCycles                    608                       # Number of cycles decode is squashing (Cycle)
system.cpu.decode.branchResolved                 1737                       # Number of times decode resolved a branch (Count)
system.cpu.decode.branchMispred                   240                       # Number of times decode detected a branch misprediction (Count)
system.cpu.decode.decodedInsts                  43024                       # Number of instructions handled by decode (Count)
system.cpu.decode.squashedInsts                  1102                       # Number of squashed instructions handled by decode (Count)
system.cpu.fetch.icacheStallCycles              16727                       # Number of cycles fetch is stalled on an Icache miss (Cycle)
system.cpu.fetch.insts                          25350                       # Number of instructions fetch has processed (Count)
system.cpu.fetch.branches                        4919                       # Number of branches that fetch encountered (Count)
system.cpu.fetch.predictedBranches               2019                       # Number of branches that fetch has predicted taken (Count)
system.cpu.fetch.cycles                         14705                       # Number of cycles fetch has run and was not squashing or blocked (Cycle)
system.cpu.fetch.squashCycles                    1676                       # Number of cycles fetch has spent squashing (Cycle)
system.cpu.fetch.miscStallCycles                  107                       # Number of cycles fetch has spent waiting on interrupts, or bad addresses, or out of MSHRs (Cycle)
system.cpu.fetch.pendingTrapStallCycles           609                       # Number of stall cycles due to pending traps (Cycle)
system.cpu.fetch.pendingQuiesceStallCycles            2                       # Number of stall cycles due to pending quiesce instructions (Cycle)
system.cpu.fetch.icacheWaitRetryStallCycles           28                       # Number of stall cycles due to full MSHR (Cycle)
system.cpu.fetch.cacheLines                      3457                       # Number of cache lines fetched (Count)
system.cpu.fetch.icacheSquashes                   362                       # Number of outstanding Icache misses that were squashed (Count)
system.cpu.fetch.nisnDist::samples              33016                       # Number of instructions fetched each cycle (Total) (Count)
system.cpu.fetch.nisnDist::mean              1.431821                       # Number of instructions fetched each cycle (Total) (Count)
system.cpu.fetch.nisnDist::stdev             2.855034                       # Number of instructions fetched each cycle (Total) (Count)
system.cpu.fetch.nisnDist::underflows               0      0.00%      0.00% # Number of instructions fetched each cycle (Total) (Count)
system.cpu.fetch.nisnDist::0                    25399     76.93%     76.93% # Number of instructions fetched each cycle (Total) (Count)
system.cpu.fetch.nisnDist::1                      511      1.55%     78.48% # Number of instructions fetched each cycle (Total) (Count)
system.cpu.fetch.nisnDist::2                      437      1.32%     79.80% # Number of instructions fetched each cycle (Total) (Count)
system.cpu.fetch.nisnDist::3                      541      1.64%     81.44% # Number of instructions fetched each cycle (Total) (Count)
system.cpu.fetch.nisnDist::4                      390      1.18%     82.62% # Number of instructions fetched each cycle (Total) (Count)
system.cpu.fetch.nisnDist::5                      455      1.38%     84.00% # Number of instructions fetched each cycle (Total) (Count)
system.cpu.fetch.nisnDist::6                      727      2.20%     86.20% # Number of instructions fetched each cycle (Total) (Count)
system.cpu.fetch.nisnDist::7                      380      1.15%     87.35% # Number of instructions fetched each cycle (Total) (Count)
system.cpu.fetch.nisnDist::8                     4176     12.65%    100.00% # Number of instructions fetched each cycle (Total) (Count)
system.cpu.fetch.nisnDist::overflows                0      0.00%    100.00% # Number of instructions fetched each cycle (Total) (Count)
system.cpu.fetch.nisnDist::min_value                0                       # Number of instructions fetched each cycle (Total) (Count)
system.cpu.fetch.nisnDist::max_value                8                       # Number of instructions fetched each cycle (Total) (Count)
system.cpu.fetch.nisnDist::total                33016                       # Number of instructions fetched each cycle (Total) (Count)
system.cpu.fetch.branchRate                  0.088521                       # Number of branch fetches per cycle (Ratio)
system.cpu.fetch.rate                        0.456190                       # Number of inst fetches per cycle ((Count/Cycle))
system.cpu.icache.demandHits::cpu.inst           2814                       # number of demand (read+write) hits (Count)
system.cpu.icache.demandHits::total              2814                       # number of demand (read+write) hits (Count)
system.cpu.icache.overallHits::cpu.inst          2814                       # number of overall hits (Count)
system.cpu.icache.overallHits::total             2814                       # number of overall hits (Count)
system.cpu.icache.demandMisses::cpu.inst          643                       # number of demand (read+write) misses (Count)
system.cpu.icache.demandMisses::total             643                       # number of demand (read+write) misses (Count)
system.cpu.icache.overallMisses::cpu.inst          643                       # number of overall misses (Count)
system.cpu.icache.overallMisses::total            643                       # number of overall misses (Count)
system.cpu.icache.demandMissLatency::cpu.inst     61981000                       # number of demand (read+write) miss ticks (Tick)
system.cpu.icache.demandMissLatency::total     61981000                       # number of demand (read+write) miss ticks (Tick)
system.cpu.icache.overallMissLatency::cpu.inst     61981000                       # number of overall miss ticks (Tick)
system.cpu.icache.overallMissLatency::total     61981000                       # number of overall miss ticks (Tick)
system.cpu.icache.demandAccesses::cpu.inst         3457                       # number of demand (read+write) accesses (Count)
system.cpu.icache.demandAccesses::total          3457                       # number of demand (read+write) accesses (Count)
system.cpu.icache.overallAccesses::cpu.inst         3457                       # number of overall (read+write) accesses (Count)
system.cpu.icache.overallAccesses::total         3457                       # number of overall (read+write) accesses (Count)
system.cpu.icache.demandMissRate::cpu.inst     0.185999                       # miss rate for demand accesses (Ratio)
system.cpu.icache.demandMissRate::total      0.185999                       # miss rate for demand accesses (Ratio)
system.cpu.icache.overallMissRate::cpu.inst     0.185999                       # miss rate for overall accesses (Ratio)
system.cpu.icache.overallMissRate::total     0.185999                       # miss rate for overall accesses (Ratio)
system.cpu.icache.demandAvgMissLatency::cpu.inst 96393.468118                       # average overall miss latency ((Cycle/Count))
system.cpu.icache.demandAvgMissLatency::total 96393.468118                       # average overall miss latency ((Cycle/Count))
system.cpu.icache.overallAvgMissLatency::cpu.inst 96393.468118                       # average overall miss latency ((Cycle/Count))
system.cpu.icache.overallAvgMissLatency::total 96393.468118                       # average overall miss latency ((Cycle/Count))
system.cpu.icache.blockedCycles::no_mshrs          242                       # number of cycles access was blocked (Cycle)
system.cpu.icache.blockedCycles::no_targets            0                       # number of cycles access was blocked (Cycle)
system.cpu.icache.blockedCauses::no_mshrs            6                       # number of times access was blocked (Count)
system.cpu.icache.blockedCauses::no_targets            0                       # number of times access was blocked (Count)
system.cpu.icache.avgBlocked::no_mshrs      40.333333                       # average number of cycles each access was blocked ((Cycle/Count))
system.cpu.icache.avgBlocked::no_targets          nan                       # average number of cycles each access was blocked ((Cycle/Count))
system.cpu.icache.demandMshrHits::cpu.inst          135                       # number of demand (read+write) MSHR hits (Count)
system.cpu.icache.demandMshrHits::total           135                       # number of demand (read+write) MSHR hits (Count)
system.cpu.icache.overallMshrHits::cpu.inst          135                       # number of overall MSHR hits (Count)
system.cpu.icache.overallMshrHits::total          135                       # number of overall MSHR hits (Count)
system.cpu.icache.demandMshrMisses::cpu.inst          508                       # number of demand (read+write) MSHR misses (Count)
system.cpu.icache.demandMshrMisses::total          508                       # number of demand (read+write) MSHR misses (Count)
system.cpu.icache.overallMshrMisses::cpu.inst          508                       # number of overall MSHR misses (Count)
system.cpu.icache.overallMshrMisses::total          508                       # number of overall MSHR misses (Count)
system.cpu.icache.demandMshrMissLatency::cpu.inst     51548000                       # number of demand (read+write) MSHR miss ticks (Tick)
system.cpu.icache.demandMshrMissLatency::total     51548000                       # number of demand (read+write) MSHR miss ticks (Tick)
system.cpu.icache.overallMshrMissLatency::cpu.inst     51548000                       # number of overall MSHR miss ticks (Tick)
system.cpu.icache.overallMshrMissLatency::total     51548000                       # number of overall MSHR miss ticks (Tick)
system.cpu.icache.demandMshrMissRate::cpu.inst     0.146948                       # mshr miss ratio for demand accesses (Ratio)
system.cpu.icache.demandMshrMissRate::total     0.146948                       # mshr miss ratio for demand accesses (Ratio)
system.cpu.icache.overallMshrMissRate::cpu.inst     0.146948                       # mshr miss ratio for overall accesses (Ratio)
system.cpu.icache.overallMshrMissRate::total     0.146948                       # mshr miss ratio for overall accesses (Ratio)
system.cpu.icache.demandAvgMshrMissLatency::cpu.inst 101472.440945                       # average overall mshr miss latency ((Cycle/Count))
system.cpu.icache.demandAvgMshrMissLatency::total 101472.440945                       # average overall mshr miss latency ((Cycle/Count))
system.cpu.icache.overallAvgMshrMissLatency::cpu.inst 101472.440945                       # average overall mshr miss latency ((Cycle/Count))
system.cpu.icache.overallAvgMshrMissLatency::total 101472.440945                       # average overall mshr miss latency ((Cycle/Count))
system.cpu.icache.replacements                     16                       # number of replacements (Count)
system.cpu.icache.ReadReq.hits::cpu.inst         2814                       # number of ReadReq hits (Count)
system.cpu.icache.ReadReq.hits::total            2814                       # number of ReadReq hits (Count)
system.cpu.icache.ReadReq.misses::cpu.inst          643                       # number of ReadReq misses (Count)
system.cpu.icache.ReadReq.misses::total           643                       # number of ReadReq misses (Count)
system.cpu.icache.ReadReq.missLatency::cpu.inst     61981000                       # number of ReadReq miss ticks (Tick)
system.cpu.icache.ReadReq.missLatency::total     61981000                       # number of ReadReq miss ticks (Tick)
system.cpu.icache.ReadReq.accesses::cpu.inst         3457                       # number of ReadReq accesses(hits+misses) (Count)
system.cpu.icache.ReadReq.accesses::total         3457                       # number of ReadReq accesses(hits+misses) (Count)
system.cpu.icache.ReadReq.missRate::cpu.inst     0.185999                       # miss rate for ReadReq accesses (Ratio)
system.cpu.icache.ReadReq.missRate::total     0.185999                       # miss rate for ReadReq accesses (Ratio)
system.cpu.icache.ReadReq.avgMissLatency::cpu.inst 96393.468118                       # average ReadReq miss latency ((Tick/Count))
system.cpu.icache.ReadReq.avgMissLatency::total 96393.468118                       # average ReadReq miss latency ((Tick/Count))
system.cpu.icache.ReadReq.mshrHits::cpu.inst          135                       # number of ReadReq MSHR hits (Count)
system.cpu.icache.ReadReq.mshrHits::total          135                       # number of ReadReq MSHR hits (Count)
system.cpu.icache.ReadReq.mshrMisses::cpu.inst          508                       # number of ReadReq MSHR misses (Count)
system.cpu.icache.ReadReq.mshrMisses::total          508                       # number of ReadReq MSHR misses (Count)
system.cpu.icache.ReadReq.mshrMissLatency::cpu.inst     51548000                       # number of ReadReq MSHR miss ticks (Tick)
system.cpu.icache.ReadReq.mshrMissLatency::total     51548000                       # number of ReadReq MSHR miss ticks (Tick)
system.cpu.icache.ReadReq.mshrMissRate::cpu.inst     0.146948                       # mshr miss rate for ReadReq accesses (Ratio)
system.cpu.icache.ReadReq.mshrMissRate::total     0.146948                       # mshr miss rate for ReadReq accesses (Ratio)
system.cpu.icache.ReadReq.avgMshrMissLatency::cpu.inst 101472.440945                       # average ReadReq mshr miss latency ((Tick/Count))
system.cpu.icache.ReadReq.avgMshrMissLatency::total 101472.440945                       # average ReadReq mshr miss latency ((Tick/Count))
system.cpu.icache.power_state.pwrStateResidencyTicks::UNDEFINED     55568000                       # Cumulative time (in ticks) in various power states (Tick)
system.cpu.icache.tags.tagsInUse           252.507689                       # Average ticks per tags in use ((Tick/Count))
system.cpu.icache.tags.totalRefs                 3321                       # Total number of references to valid blocks. (Count)
system.cpu.icache.tags.sampledRefs                507                       # Sample count of references to valid blocks. (Count)
system.cpu.icache.tags.avgRefs               6.550296                       # Average number of references to valid blocks. ((Count/Count))
system.cpu.icache.tags.warmupTick              107000                       # The tick when the warmup percentage was hit. (Tick)
system.cpu.icache.tags.occupancies::cpu.inst   252.507689                       # Average occupied blocks per tick, per requestor ((Count/Tick))
system.cpu.icache.tags.avgOccs::cpu.inst     0.246590                       # Average percentage of cache occupancy ((Ratio/Tick))
system.cpu.icache.tags.avgOccs::total        0.246590                       # Average percentage of cache occupancy ((Ratio/Tick))
system.cpu.icache.tags.occupanciesTaskId::1024          491                       # Occupied blocks per task id (Count)
system.cpu.icache.tags.ageTaskId_1024::0           79                       # Occupied blocks per task id, per block age (Count)
system.cpu.icache.tags.ageTaskId_1024::1          412                       # Occupied blocks per task id, per block age (Count)
system.cpu.icache.tags.ratioOccsTaskId::1024     0.479492                       # Ratio of occupied blocks and all blocks, per task id (Ratio)
system.cpu.icache.tags.tagAccesses               7421                       # Number of tag accesses (Count)
system.cpu.icache.tags.dataAccesses              7421                       # Number of data accesses (Count)
system.cpu.icache.tags.power_state.pwrStateResidencyTicks::UNDEFINED     55568000                       # Cumulative time (in ticks) in various power states (Tick)
system.cpu.interrupts.clk_domain.clock          16000                       # Clock period in ticks (Tick)
system.cpu.lsq0.forwLoads                         308                       # Number of loads that had data forwarded from stores (Count)
system.cpu.lsq0.squashedLoads                    1685                       # Number of loads squashed (Count)
system.cpu.lsq0.ignoredResponses                    0                       # Number of memory responses ignored because the instruction is squashed (Count)
system.cpu.lsq0.memOrderViolation                  12                       # Number of memory ordering violations (Count)
system.cpu.lsq0.squashedStores                   1115                       # Number of stores squashed (Count)
system.cpu.lsq0.rescheduledLoads                    0                       # Number of loads that were rescheduled (Count)
system.cpu.lsq0.blockedByCache                     15                       # Number of times an access to memory failed due to the cache being blocked (Count)
system.cpu.lsq0.loadToUse::samples               1757                       # Distribution of cycle latency between the first time a load is issued and its completion (Unspecified)
system.cpu.lsq0.loadToUse::mean             11.378486                       # Distribution of cycle latency between the first time a load is issued and its completion (Unspecified)
system.cpu.lsq0.loadToUse::stdev            30.093735                       # Distribution of cycle latency between the first time a load is issued and its completion (Unspecified)
system.cpu.lsq0.loadToUse::0-9                   1612     91.75%     91.75% # Distribution of cycle latency between the first time a load is issued and its completion (Unspecified)
system.cpu.lsq0.loadToUse::10-19                    3      0.17%     91.92% # Distribution of cycle latency between the first time a load is issued and its completion (Unspecified)
system.cpu.lsq0.loadToUse::20-29                    3      0.17%     92.09% # Distribution of cycle latency between the first time a load is issued and its completion (Unspecified)
system.cpu.lsq0.loadToUse::30-39                    2      0.11%     92.20% # Distribution of cycle latency between the first time a load is issued and its completion (Unspecified)
system.cpu.lsq0.loadToUse::40-49                    1      0.06%     92.26% # Distribution of cycle latency between the first time a load is issued and its completion (Unspecified)
system.cpu.lsq0.loadToUse::50-59                    5      0.28%     92.54% # Distribution of cycle latency between the first time a load is issued and its completion (Unspecified)
system.cpu.lsq0.loadToUse::70-79                    3      0.17%     92.71% # Distribution of cycle latency between the first time a load is issued and its completion (Unspecified)
system.cpu.lsq0.loadToUse::80-89                    6      0.34%     93.06% # Distribution of cycle latency between the first time a load is issued and its completion (Unspecified)
system.cpu.lsq0.loadToUse::90-99                   39      2.22%     95.28% # Distribution of cycle latency between the first time a load is issued and its completion (Unspecified)
system.cpu.lsq0.loadToUse::100-109                 28      1.59%     96.87% # Distribution of cycle latency between the first time a load is issued and its completion (Unspecified)
system.cpu.lsq0.loadToUse::110-119                 22      1.25%     98.12% # Distribution of cycle latency between the first time a load is issued and its completion (Unspecified)
system.cpu.lsq0.loadToUse::120-129                 24      1.37%     99.49% # Distribution of cycle latency between the first time a load is issued and its completion (Unspecified)
system.cpu.lsq0.loadToUse::130-139                  5      0.28%     99.77% # Distribution of cycle latency between the first time a load is issued and its completion (Unspecified)
system.cpu.lsq0.loadToUse::180-189                  1      0.06%     99.83% # Distribution of cycle latency between the first time a load is issued and its completion (Unspecified)
system.cpu.lsq0.loadToUse::overflows                3      0.17%    100.00% # Distribution of cycle latency between the first time a load is issued and its completion (Unspecified)
system.cpu.lsq0.loadToUse::min_value                2                       # Distribution of cycle latency between the first time a load is issued and its completion (Unspecified)
system.cpu.lsq0.loadToUse::max_value              315                       # Distribution of cycle latency between the first time a load is issued and its completion (Unspecified)
system.cpu.lsq0.loadToUse::total                 1757                       # Distribution of cycle latency between the first time a load is issued and its completion (Unspecified)
system.cpu.mmu.dtb.rdAccesses                    2894                       # TLB accesses on read requests (Count)
system.cpu.mmu.dtb.wrAccesses                    2535                       # TLB accesses on write requests (Count)
system.cpu.mmu.dtb.rdMisses                        72                       # TLB misses on read requests (Count)
system.cpu.mmu.dtb.wrMisses                        21                       # TLB misses on write requests (Count)
system.cpu.mmu.dtb.walker.power_state.pwrStateResidencyTicks::UNDEFINED     55568000                       # Cumulative time (in ticks) in various power states (Tick)
system.cpu.mmu.itb.rdAccesses                       0                       # TLB accesses on read requests (Count)
system.cpu.mmu.itb.wrAccesses                    3569                       # TLB accesses on write requests (Count)
system.cpu.mmu.itb.rdMisses                         0                       # TLB misses on read requests (Count)
system.cpu.mmu.itb.wrMisses                       156                       # TLB misses on write requests (Count)
system.cpu.mmu.itb.walker.power_state.pwrStateResidencyTicks::UNDEFINED     55568000                       # Cumulative time (in ticks) in various power states (Tick)
system.cpu.power_state.pwrStateResidencyTicks::ON     55568000                       # Cumulative time (in ticks) in various power states (Tick)
system.cpu.rename.squashCycles                    608                       # Number of cycles rename is squashing (Cycle)
system.cpu.rename.idleCycles                    16902                       # Number of cycles rename is idle (Cycle)
system.cpu.rename.blockCycles                    3239                       # Number of cycles rename is blocking (Cycle)
system.cpu.rename.serializeStallCycles             51                       # count of cycles rename stalled for serializing inst (Cycle)
system.cpu.rename.runCycles                      5766                       # Number of cycles rename is running (Cycle)
system.cpu.rename.unblockCycles                  6450                       # Number of cycles rename is unblocking (Cycle)
system.cpu.rename.renamedInsts                  41626                       # Number of instructions processed by rename (Count)
system.cpu.rename.ROBFullEvents                     9                       # Number of times rename has blocked due to ROB full (Count)
system.cpu.rename.IQFullEvents                   1388                       # Number of times rename has blocked due to IQ full (Count)
system.cpu.rename.SQFullEvents                   4741                       # Number of times rename has blocked due to SQ full (Count)
system.cpu.rename.renamedOperands               49358                       # Number of destination operands rename has renamed (Count)
system.cpu.rename.lookups                      100804                       # Number of register rename lookups that rename has made (Count)
system.cpu.rename.intLookups                    61390                       # Number of integer rename lookups (Count)
system.cpu.rename.fpLookups                      1824                       # Number of floating rename lookups (Count)
system.cpu.rename.committedMaps                 32013                       # Number of HB maps that are committed (Count)
[...]
system.mem_ctrl.requestorReadAvgLat::cpu.inst     27335.80                       # Per-requestor read average memory access latency ((Tick/Count))
system.mem_ctrl.requestorReadAvgLat::cpu.data     32761.72                       # Per-requestor read average memory access latency ((Tick/Count))
system.mem_ctrl.dram.bytesRead::cpu.inst        32448                       # Number of bytes read from this memory (Byte)
system.mem_ctrl.dram.bytesRead::cpu.data        16384                       # Number of bytes read from this memory (Byte)
system.mem_ctrl.dram.bytesRead::total           48832                       # Number of bytes read from this memory (Byte)
system.mem_ctrl.dram.bytesInstRead::cpu.inst        32448                       # Number of instructions bytes read from this memory (Byte)
system.mem_ctrl.dram.bytesInstRead::total        32448                       # Number of instructions bytes read from this memory (Byte)
system.mem_ctrl.dram.numReads::cpu.inst           507                       # Number of read requests responded to by this memory (Count)
system.mem_ctrl.dram.numReads::cpu.data           256                       # Number of read requests responded to by this memory (Count)
system.mem_ctrl.dram.numReads::total              763                       # Number of read requests responded to by this memory (Count)
system.mem_ctrl.dram.bwRead::cpu.inst       583933199                       # Total read bandwidth from this memory ((Byte/Second))
system.mem_ctrl.dram.bwRead::cpu.data       294845955                       # Total read bandwidth from this memory ((Byte/Second))
system.mem_ctrl.dram.bwRead::total          878779153                       # Total read bandwidth from this memory ((Byte/Second))
system.mem_ctrl.dram.bwInstRead::cpu.inst    583933199                       # Instruction read bandwidth from this memory ((Byte/Second))
system.mem_ctrl.dram.bwInstRead::total      583933199                       # Instruction read bandwidth from this memory ((Byte/Second))
system.mem_ctrl.dram.bwTotal::cpu.inst      583933199                       # Total bandwidth to/from this memory ((Byte/Second))
system.mem_ctrl.dram.bwTotal::cpu.data      294845955                       # Total bandwidth to/from this memory ((Byte/Second))
system.mem_ctrl.dram.bwTotal::total         878779153                       # Total bandwidth to/from this memory ((Byte/Second))
system.mem_ctrl.dram.readBursts                   763                       # Number of DRAM read bursts (Count)
system.mem_ctrl.dram.writeBursts                    0                       # Number of DRAM write bursts (Count)
system.mem_ctrl.dram.perBankRdBursts::0            15                       # Per bank write bursts (Count)
system.mem_ctrl.dram.perBankRdBursts::1            67                       # Per bank write bursts (Count)
system.mem_ctrl.dram.perBankRdBursts::2            39                       # Per bank write bursts (Count)
system.mem_ctrl.dram.perBankRdBursts::3           143                       # Per bank write bursts (Count)
system.mem_ctrl.dram.perBankRdBursts::4           101                       # Per bank write bursts (Count)
system.mem_ctrl.dram.perBankRdBursts::5            48                       # Per bank write bursts (Count)
system.mem_ctrl.dram.perBankRdBursts::6            18                       # Per bank write bursts (Count)
system.mem_ctrl.dram.perBankRdBursts::7            59                       # Per bank write bursts (Count)
system.mem_ctrl.dram.perBankRdBursts::8             4                       # Per bank write bursts (Count)
system.mem_ctrl.dram.perBankRdBursts::9            82                       # Per bank write bursts (Count)
system.mem_ctrl.dram.perBankRdBursts::10           29                       # Per bank write bursts (Count)
system.mem_ctrl.dram.perBankRdBursts::11           43                       # Per bank write bursts (Count)
system.mem_ctrl.dram.perBankRdBursts::12            9                       # Per bank write bursts (Count)
system.mem_ctrl.dram.perBankRdBursts::13           18                       # Per bank write bursts (Count)
system.mem_ctrl.dram.perBankRdBursts::14           39                       # Per bank write bursts (Count)
system.mem_ctrl.dram.perBankRdBursts::15           49                       # Per bank write bursts (Count)
system.mem_ctrl.dram.perBankWrBursts::0             0                       # Per bank write bursts (Count)
system.mem_ctrl.dram.perBankWrBursts::1             0                       # Per bank write bursts (Count)
system.mem_ctrl.dram.perBankWrBursts::2             0                       # Per bank write bursts (Count)
system.mem_ctrl.dram.perBankWrBursts::3             0                       # Per bank write bursts (Count)
system.mem_ctrl.dram.perBankWrBursts::4             0                       # Per bank write bursts (Count)
system.mem_ctrl.dram.perBankWrBursts::5             0                       # Per bank write bursts (Count)
system.mem_ctrl.dram.perBankWrBursts::6             0                       # Per bank write bursts (Count)
system.mem_ctrl.dram.perBankWrBursts::7             0                       # Per bank write bursts (Count)
system.mem_ctrl.dram.perBankWrBursts::8             0                       # Per bank write bursts (Count)
system.mem_ctrl.dram.perBankWrBursts::9             0                       # Per bank write bursts (Count)
system.mem_ctrl.dram.perBankWrBursts::10            0                       # Per bank write bursts (Count)
system.mem_ctrl.dram.perBankWrBursts::11            0                       # Per bank write bursts (Count)
system.mem_ctrl.dram.perBankWrBursts::12            0                       # Per bank write bursts (Count)
system.mem_ctrl.dram.perBankWrBursts::13            0                       # Per bank write bursts (Count)
system.mem_ctrl.dram.perBankWrBursts::14            0                       # Per bank write bursts (Count)
system.mem_ctrl.dram.perBankWrBursts::15            0                       # Per bank write bursts (Count)
system.mem_ctrl.dram.totQLat                  7940000                       # Total ticks spent queuing (Tick)
system.mem_ctrl.dram.totBusLat                3815000                       # Total ticks spent in databus transfers (Tick)
system.mem_ctrl.dram.totMemAccLat            22246250                       # Total ticks spent from burst creation until serviced by the DRAM (Tick)
system.mem_ctrl.dram.avgQLat                 10406.29                       # Average queueing delay per DRAM burst ((Tick/Count))
system.mem_ctrl.dram.avgBusLat                5000.00                       # Average bus latency per DRAM burst ((Tick/Count))
system.mem_ctrl.dram.avgMemAccLat            29156.29                       # Average memory access latency per DRAM burst ((Tick/Count))
system.mem_ctrl.dram.readRowHits                  604                       # Number of row buffer hits during reads (Count)
system.mem_ctrl.dram.writeRowHits                   0                       # Number of row buffer hits during writes (Count)
system.mem_ctrl.dram.readRowHitRate             79.16                       # Row buffer hit rate for reads (Ratio)
system.mem_ctrl.dram.writeRowHitRate              nan                       # Row buffer hit rate for writes (Ratio)
system.mem_ctrl.dram.bytesPerActivate::samples          156                       # Bytes accessed per row activation (Byte)
system.mem_ctrl.dram.bytesPerActivate::mean   309.333333                       # Bytes accessed per row activation (Byte)
system.mem_ctrl.dram.bytesPerActivate::gmean   191.134328                       # Bytes accessed per row activation (Byte)
system.mem_ctrl.dram.bytesPerActivate::stdev   312.338388                       # Bytes accessed per row activation (Byte)
system.mem_ctrl.dram.bytesPerActivate::0-127           50     32.05%     32.05% # Bytes accessed per row activation (Byte)
system.mem_ctrl.dram.bytesPerActivate::128-255           41     26.28%     58.33% # Bytes accessed per row activation (Byte)
system.mem_ctrl.dram.bytesPerActivate::256-383           21     13.46%     71.79% # Bytes accessed per row activation (Byte)
system.mem_ctrl.dram.bytesPerActivate::384-511           10      6.41%     78.21% # Bytes accessed per row activation (Byte)
system.mem_ctrl.dram.bytesPerActivate::512-639            2      1.28%     79.49% # Bytes accessed per row activation (Byte)
system.mem_ctrl.dram.bytesPerActivate::640-767            7      4.49%     83.97% # Bytes accessed per row activation (Byte)
system.mem_ctrl.dram.bytesPerActivate::768-895            9      5.77%     89.74% # Bytes accessed per row activation (Byte)
system.mem_ctrl.dram.bytesPerActivate::896-1023            3      1.92%     91.67% # Bytes accessed per row activation (Byte)
system.mem_ctrl.dram.bytesPerActivate::1024-1151           13      8.33%    100.00% # Bytes accessed per row activation (Byte)
system.mem_ctrl.dram.bytesPerActivate::total          156                       # Bytes accessed per row activation (Byte)
system.mem_ctrl.dram.bytesRead                  48832                       # Total number of bytes read from DRAM (Byte)
system.mem_ctrl.dram.bytesWritten                   0                       # Total number of bytes written to DRAM (Byte)
system.mem_ctrl.dram.avgRdBW               878.779153                       # Average DRAM read bandwidth in MiBytes/s ((Byte/Second))
system.mem_ctrl.dram.avgWrBW                        0                       # Average DRAM write bandwidth in MiBytes/s ((Byte/Second))
system.mem_ctrl.dram.peakBW                  12800.00                       # Theoretical peak bandwidth in MiByte/s ((Byte/Second))
system.mem_ctrl.dram.busUtil                     6.87                       # Data bus utilization in percentage (Ratio)
system.mem_ctrl.dram.busUtilRead                 6.87                       # Data bus utilization in percentage for reads (Ratio)
system.mem_ctrl.dram.busUtilWrite                0.00                       # Data bus utilization in percentage for writes (Ratio)
system.mem_ctrl.dram.pageHitRate                79.16                       # Row buffer hit rate, read and write combined (Ratio)
system.mem_ctrl.dram.power_state.pwrStateResidencyTicks::UNDEFINED     55568000                       # Cumulative time (in ticks) in various power states (Tick)
system.mem_ctrl.dram.rank0.actEnergy           821100                       # Energy for activate commands per rank (pJ) (Joule)
system.mem_ctrl.dram.rank0.preEnergy           428835                       # Energy for precharge commands per rank (pJ) (Joule)
system.mem_ctrl.dram.rank0.readEnergy         3498600                       # Energy for read commands per rank (pJ) (Joule)
system.mem_ctrl.dram.rank0.writeEnergy              0                       # Energy for write commands per rank (pJ) (Joule)
system.mem_ctrl.dram.rank0.refreshEnergy 4302480.000000                       # Energy for refresh commands per rank (pJ) (Joule)
system.mem_ctrl.dram.rank0.actBackEnergy     24926670                       # Energy for active background per rank (pJ) (Joule)
system.mem_ctrl.dram.rank0.preBackEnergy       347520                       # Energy for precharge background per rank (pJ) (Joule)
system.mem_ctrl.dram.rank0.actPowerDownEnergy            0                       # Energy for active power-down per rank (pJ) (Joule)
system.mem_ctrl.dram.rank0.prePowerDownEnergy            0                       # Energy for precharge power-down per rank (pJ) (Joule)
system.mem_ctrl.dram.rank0.selfRefreshEnergy            0                       # Energy for self refresh per rank (pJ) (Joule)
system.mem_ctrl.dram.rank0.totalEnergy       34325205                       # Total energy per rank (pJ) (Joule)
system.mem_ctrl.dram.rank0.averagePower    617.715322                       # Core power per rank (mW) (Watt)
system.mem_ctrl.dram.rank0.totalIdleTime            0                       # Total Idle time Per DRAM Rank (Tick)
system.mem_ctrl.dram.rank0.pwrStateTime::IDLE       684500                       # Time in different power states (Tick)
system.mem_ctrl.dram.rank0.pwrStateTime::REF      1820000                       # Time in different power states (Tick)
system.mem_ctrl.dram.rank0.pwrStateTime::SREF            0                       # Time in different power states (Tick)
system.mem_ctrl.dram.rank0.pwrStateTime::PRE_PDN            0                       # Time in different power states (Tick)
system.mem_ctrl.dram.rank0.pwrStateTime::ACT     53063500                       # Time in different power states (Tick)
system.mem_ctrl.dram.rank0.pwrStateTime::ACT_PDN            0                       # Time in different power states (Tick)
system.mem_ctrl.dram.rank1.actEnergy           314160                       # Energy for activate commands per rank (pJ) (Joule)
system.mem_ctrl.dram.rank1.preEnergy           163185                       # Energy for precharge commands per rank (pJ) (Joule)
system.mem_ctrl.dram.rank1.readEnergy         1949220                       # Energy for read commands per rank (pJ) (Joule)
system.mem_ctrl.dram.rank1.writeEnergy              0                       # Energy for write commands per rank (pJ) (Joule)
system.mem_ctrl.dram.rank1.refreshEnergy 4302480.000000                       # Energy for refresh commands per rank (pJ) (Joule)
system.mem_ctrl.dram.rank1.actBackEnergy     21040980                       # Energy for active background per rank (pJ) (Joule)
system.mem_ctrl.dram.rank1.preBackEnergy      3619680                       # Energy for precharge background per rank (pJ) (Joule)
system.mem_ctrl.dram.rank1.actPowerDownEnergy            0                       # Energy for active power-down per rank (pJ) (Joule)
system.mem_ctrl.dram.rank1.prePowerDownEnergy            0                       # Energy for precharge power-down per rank (pJ) (Joule)
system.mem_ctrl.dram.rank1.selfRefreshEnergy            0                       # Energy for self refresh per rank (pJ) (Joule)
system.mem_ctrl.dram.rank1.totalEnergy       31389705                       # Total energy per rank (pJ) (Joule)
system.mem_ctrl.dram.rank1.averagePower    564.888155                       # Core power per rank (mW) (Watt)
system.mem_ctrl.dram.rank1.totalIdleTime            0                       # Total Idle time Per DRAM Rank (Tick)
system.mem_ctrl.dram.rank1.pwrStateTime::IDLE      9244750                       # Time in different power states (Tick)
system.mem_ctrl.dram.rank1.pwrStateTime::REF      1820000                       # Time in different power states (Tick)
system.mem_ctrl.dram.rank1.pwrStateTime::SREF            0                       # Time in different power states (Tick)
system.mem_ctrl.dram.rank1.pwrStateTime::PRE_PDN            0                       # Time in different power states (Tick)
system.mem_ctrl.dram.rank1.pwrStateTime::ACT     44503250                       # Time in different power states (Tick)
system.mem_ctrl.dram.rank1.pwrStateTime::ACT_PDN            0                       # Time in different power states (Tick)
system.mem_ctrl.power_state.pwrStateResidencyTicks::UNDEFINED     55568000                       # Cumulative time (in ticks) in various power states (Tick)
system.membus.transDist::ReadResp                 638                       # Transaction distribution (Count)
system.membus.transDist::ReadExReq                125                       # Transaction distribution (Count)
system.membus.transDist::ReadExResp               125                       # Transaction distribution (Count)
system.membus.transDist::ReadSharedReq            638                       # Transaction distribution (Count)
system.membus.pktCount_system.l2cache.mem_side_port::system.mem_ctrl.port         1526                       # Packet count per connected requestor and responder (Count)
system.membus.pktCount_system.l2cache.mem_side_port::total         1526                       # Packet count per connected requestor and responder (Count)
system.membus.pktCount::total                    1526                       # Packet count per connected requestor and responder (Count)
system.membus.pktSize_system.l2cache.mem_side_port::system.mem_ctrl.port        48832                       # Cumulative packet size per connected requestor and responder (Byte)
system.membus.pktSize_system.l2cache.mem_side_port::total        48832                       # Cumulative packet size per connected requestor and responder (Byte)
system.membus.pktSize::total                    48832                       # Cumulative packet size per connected requestor and responder (Byte)
system.membus.snoops                                0                       # Total snoops (Count)
system.membus.snoopTraffic                          0                       # Total snoop traffic (Byte)
system.membus.snoopFanout::samples                763                       # Request fanout histogram (Count)
system.membus.snoopFanout::mean                     0                       # Request fanout histogram (Count)
system.membus.snoopFanout::stdev                    0                       # Request fanout histogram (Count)
system.membus.snoopFanout::underflows               0      0.00%      0.00% # Request fanout histogram (Count)
system.membus.snoopFanout::0                      763    100.00%    100.00% # Request fanout histogram (Count)
system.membus.snoopFanout::1                        0      0.00%    100.00% # Request fanout histogram (Count)
system.membus.snoopFanout::overflows                0      0.00%    100.00% # Request fanout histogram (Count)
system.membus.snoopFanout::min_value                0                       # Request fanout histogram (Count)
system.membus.snoopFanout::max_value                0                       # Request fanout histogram (Count)
system.membus.snoopFanout::total                  763                       # Request fanout histogram (Count)
system.membus.power_state.pwrStateResidencyTicks::UNDEFINED     55568000                       # Cumulative time (in ticks) in various power states (Tick)
system.membus.reqLayer2.occupancy              763000                       # Layer occupancy (ticks) (Tick)
system.membus.reqLayer2.utilization               0.0                       # Layer utilization (Ratio)
system.membus.respLayer0.occupancy            4044000                       # Layer occupancy (ticks) (Tick)
system.membus.respLayer0.utilization              0.1                       # Layer utilization (Ratio)
system.membus.snoop_filter.totRequests            763                       # Total number of requests made to the snoop filter. (Count)
system.membus.snoop_filter.hitSingleRequests            0                       # Number of requests hitting in the snoop filter with a single holder of the requested data. (Count)
system.membus.snoop_filter.hitMultiRequests            0                       # Number of requests hitting in the snoop filter with multiple (>1) holders of the requested data. (Count)
system.membus.snoop_filter.totSnoops                0                       # Total number of snoops made to the snoop filter. (Count)
system.membus.snoop_filter.hitSingleSnoops            0                       # Number of snoops hitting in the snoop filter with a single holder of the requested data. (Count)
system.membus.snoop_filter.hitMultiSnoops            0                       # Number of snoops hitting in the snoop filter with multiple (>1) holders of the requested data. (Count)
system.workload.inst.arm                            0                       # number of arm instructions executed (Count)
system.workload.inst.quiesce                        0                       # number of quiesce instructions executed (Count)

---------- End Simulation Statistics   ----------
